<?xml version="1.0" encoding="UTF-8"?>

<!-- generated on Tue Nov  6 00:23:43 2018 by Eclipse SUMO netconvert Version 1.0.1
<configuration xmlns:xsi="http://www.w3.org/2001/XMLSchema-instance" xsi:noNamespaceSchemaLocation="http://sumo.dlr.de/xsd/netconvertConfiguration.xsd">

    <input>
        <node-files value="cross.nod.xml"/>
        <edge-files value="cross.edg.xml"/>
    </input>

    <output>
        <output-file value="cross.net.xml"/>
    </output>

</configuration>
-->

<net version="1.0" junctionCornerDetail="5" limitTurnSpeed="5.50" xmlns:xsi="http://www.w3.org/2001/XMLSchema-instance" xsi:noNamespaceSchemaLocation="http://sumo.dlr.de/xsd/net_file.xsd">

    <location netOffset="510.00,510.00" convBoundary="0.00,0.00,1020.00,1020.00" origBoundary="-510.00,-510.00,510.00,510.00" projParameter="!"/>

    <edge id=":0_0" function="internal">
        <lane id=":0_0_0" index="0" speed="6.51" length="9.03" shape="508.40,517.20 508.05,514.75 507.00,513.00 505.25,511.95 502.80,511.60"/>
    </edge>
    <edge id=":0_1" function="internal">
        <lane id=":0_1_0" index="0" speed="15.28" length="14.40" shape="508.40,517.20 508.40,502.80"/>
    </edge>
    <edge id=":0_2" function="internal">
        <lane id=":0_2_0" index="0" speed="8.00" length="5.93" shape="508.40,517.20 508.95,513.35 510.00,511.60"/>
    </edge>
    <edge id=":0_3" function="internal">
        <lane id=":0_3_0" index="0" speed="3.65" length="2.34" shape="508.40,517.20 509.20,516.00 510.00,515.60"/>
    </edge>
    <edge id=":0_16" function="internal">
        <lane id=":0_16_0" index="0" speed="8.00" length="8.26" shape="510.00,511.60 510.60,510.60 513.35,508.95 517.20,508.40"/>
    </edge>
    <edge id=":0_17" function="internal">
        <lane id=":0_17_0" index="0" speed="3.65" length="2.34" shape="510.00,515.60 510.80,516.00 511.60,517.20"/>
    </edge>
    <edge id=":0_4" function="internal">
        <lane id=":0_4_0" index="0" speed="6.51" length="9.03" shape="517.20,511.60 514.75,511.95 513.00,513.00 511.95,514.75 511.60,517.20"/>
    </edge>
    <edge id=":0_5" function="internal">
        <lane id=":0_5_0" index="0" speed="15.28" length="14.40" shape="517.20,511.60 502.80,511.60"/>
    </edge>
    <edge id=":0_6" function="internal">
        <lane id=":0_6_0" index="0" speed="8.00" length="5.93" shape="517.20,511.60 513.35,511.05 511.60,510.00"/>
    </edge>
    <edge id=":0_7" function="internal">
        <lane id=":0_7_0" index="0" speed="3.65" length="2.34" shape="517.20,511.60 516.00,510.80 515.60,510.00"/>
    </edge>
    <edge id=":0_18" function="internal">
        <lane id=":0_18_0" index="0" speed="8.00" length="8.26" shape="511.60,510.00 510.60,509.40 508.95,506.65 508.40,502.80"/>
    </edge>
    <edge id=":0_19" function="internal">
        <lane id=":0_19_0" index="0" speed="3.65" length="2.34" shape="515.60,510.00 516.00,509.20 517.20,508.40"/>
    </edge>
    <edge id=":0_8" function="internal">
        <lane id=":0_8_0" index="0" speed="6.51" length="9.03" shape="511.60,502.80 511.95,505.25 513.00,507.00 514.75,508.05 517.20,508.40"/>
    </edge>
    <edge id=":0_9" function="internal">
        <lane id=":0_9_0" index="0" speed="15.28" length="14.40" shape="511.60,502.80 511.60,517.20"/>
    </edge>
    <edge id=":0_10" function="internal">
        <lane id=":0_10_0" index="0" speed="8.00" length="5.93" shape="511.60,502.80 511.05,506.65 510.00,508.40"/>
    </edge>
    <edge id=":0_11" function="internal">
        <lane id=":0_11_0" index="0" speed="3.65" length="2.34" shape="511.60,502.80 510.80,504.00 510.00,504.40"/>
    </edge>
    <edge id=":0_20" function="internal">
        <lane id=":0_20_0" index="0" speed="8.00" length="8.26" shape="510.00,508.40 509.40,509.40 506.65,511.05 502.80,511.60"/>
    </edge>
    <edge id=":0_21" function="internal">
        <lane id=":0_21_0" index="0" speed="3.65" length="2.34" shape="510.00,504.40 509.20,504.00 508.40,502.80"/>
    </edge>
    <edge id=":0_12" function="internal">
        <lane id=":0_12_0" index="0" speed="6.51" length="9.03" shape="502.80,508.40 505.25,508.05 507.00,507.00 508.05,505.25 508.40,502.80"/>
    </edge>
    <edge id=":0_13" function="internal">
        <lane id=":0_13_0" index="0" speed="15.28" length="14.40" shape="502.80,508.40 517.20,508.40"/>
    </edge>
    <edge id=":0_14" function="internal">
        <lane id=":0_14_0" index="0" speed="8.00" length="5.93" shape="502.80,508.40 506.65,508.95 508.40,510.00"/>
    </edge>
    <edge id=":0_15" function="internal">
        <lane id=":0_15_0" index="0" speed="3.65" length="2.34" shape="502.80,508.40 504.00,509.20 504.40,510.00"/>
    </edge>
    <edge id=":0_22" function="internal">
        <lane id=":0_22_0" index="0" speed="8.00" length="8.26" shape="508.40,510.00 509.40,510.60 511.05,513.35 511.60,517.20"/>
    </edge>
    <edge id=":0_23" function="internal">
        <lane id=":0_23_0" index="0" speed="3.65" length="2.34" shape="504.40,510.00 504.00,510.80 502.80,511.60"/>
    </edge>
    <edge id=":1_0" function="internal">
        <lane id=":1_0_0" index="0" speed="15.28" length="0.10" shape="60.00,511.60 60.00,511.60"/>
    </edge>
    <edge id=":1_1" function="internal">
        <lane id=":1_1_0" index="0" speed="3.65" length="2.34" shape="60.00,511.60 58.80,510.80 58.40,510.00"/>
    </edge>
    <edge id=":1_4" function="internal">
        <lane id=":1_4_0" index="0" speed="3.65" length="2.34" shape="58.40,510.00 58.80,509.20 60.00,508.40"/>
    </edge>
    <edge id=":1_2" function="internal">
        <lane id=":1_2_0" index="0" speed="15.28" length="0.10" shape="60.00,508.40 60.00,508.40"/>
    </edge>
    <edge id=":1_3" function="internal">
        <lane id=":1_3_0" index="0" speed="3.65" length="2.34" shape="60.00,508.40 61.20,509.20 61.60,510.00"/>
    </edge>
    <edge id=":1_5" function="internal">
        <lane id=":1_5_0" index="0" speed="3.65" length="2.34" shape="61.60,510.00 61.20,510.80 60.00,511.60"/>
    </edge>
    <edge id=":2_0" function="internal">
        <lane id=":2_0_0" index="0" speed="15.28" length="0.10" shape="960.00,511.60 960.00,511.60"/>
    </edge>
    <edge id=":2_1" function="internal">
        <lane id=":2_1_0" index="0" speed="3.65" length="2.34" shape="960.00,511.60 958.80,510.80 958.40,510.00"/>
    </edge>
    <edge id=":2_4" function="internal">
        <lane id=":2_4_0" index="0" speed="3.65" length="2.34" shape="958.40,510.00 958.80,509.20 960.00,508.40"/>
    </edge>
    <edge id=":2_2" function="internal">
        <lane id=":2_2_0" index="0" speed="15.28" length="0.10" shape="960.00,508.40 960.00,508.40"/>
    </edge>
    <edge id=":2_3" function="internal">
        <lane id=":2_3_0" index="0" speed="3.65" length="2.34" shape="960.00,508.40 961.20,509.20 961.60,510.00"/>
    </edge>
    <edge id=":2_5" function="internal">
        <lane id=":2_5_0" index="0" speed="3.65" length="2.34" shape="961.60,510.00 961.20,510.80 960.00,511.60"/>
    </edge>
    <edge id=":3_0" function="internal">
        <lane id=":3_0_0" index="0" speed="15.28" length="0.10" shape="508.40,60.00 508.40,60.00"/>
    </edge>
    <edge id=":3_1" function="internal">
        <lane id=":3_1_0" index="0" speed="3.65" length="2.34" shape="508.40,60.00 509.20,58.80 510.00,58.40"/>
    </edge>
    <edge id=":3_4" function="internal">
        <lane id=":3_4_0" index="0" speed="3.65" length="2.34" shape="510.00,58.40 510.80,58.80 511.60,60.00"/>
    </edge>
    <edge id=":3_2" function="internal">
        <lane id=":3_2_0" index="0" speed="15.28" length="0.10" shape="511.60,60.00 511.60,60.00"/>
    </edge>
    <edge id=":3_3" function="internal">
        <lane id=":3_3_0" index="0" speed="3.65" length="2.34" shape="511.60,60.00 510.80,61.20 510.00,61.60"/>
    </edge>
    <edge id=":3_5" function="internal">
        <lane id=":3_5_0" index="0" speed="3.65" length="2.34" shape="510.00,61.60 509.20,61.20 508.40,60.00"/>
    </edge>
    <edge id=":4_0" function="internal">
        <lane id=":4_0_0" index="0" speed="15.28" length="0.10" shape="508.40,960.00 508.40,960.00"/>
    </edge>
    <edge id=":4_1" function="internal">
        <lane id=":4_1_0" index="0" speed="3.65" length="2.34" shape="508.40,960.00 509.20,958.80 510.00,958.40"/>
    </edge>
    <edge id=":4_4" function="internal">
        <lane id=":4_4_0" index="0" speed="3.65" length="2.34" shape="510.00,958.40 510.80,958.80 511.60,960.00"/>
    </edge>
    <edge id=":4_2" function="internal">
        <lane id=":4_2_0" index="0" speed="15.28" length="0.10" shape="511.60,960.00 511.60,960.00"/>
    </edge>
    <edge id=":4_3" function="internal">
        <lane id=":4_3_0" index="0" speed="3.65" length="2.34" shape="511.60,960.00 510.80,961.20 510.00,961.60"/>
    </edge>
    <edge id=":4_5" function="internal">
        <lane id=":4_5_0" index="0" speed="3.65" length="2.34" shape="510.00,961.60 509.20,961.20 508.40,960.00"/>
    </edge>
    <edge id=":51_0" function="internal">
        <lane id=":51_0_0" index="0" speed="3.65" length="4.67" shape="0.00,511.60 -1.20,510.80 -1.60,510.00 -1.20,509.20 0.00,508.40"/>
    </edge>
    <edge id=":52_0" function="internal">
        <lane id=":52_0_0" index="0" speed="3.65" length="4.67" shape="1020.00,508.40 1021.20,509.20 1021.60,510.00 1021.20,510.80 1020.00,511.60"/>
    </edge>
    <edge id=":53_0" function="internal">
        <lane id=":53_0_0" index="0" speed="3.65" length="4.67" shape="508.40,0.00 509.20,-1.20 510.00,-1.60 510.80,-1.20 511.60,0.00"/>
    </edge>
    <edge id=":54_0" function="internal">
        <lane id=":54_0_0" index="0" speed="3.65" length="4.67" shape="511.60,1020.00 510.80,1021.20 510.00,1021.60 509.20,1021.20 508.40,1020.00"/>
    </edge>

    <edge id="1i" from="1" to="0" priority="78">
        <lane id="1i_0" index="0" speed="19.44" length="442.80" shape="60.00,508.40 502.80,508.40"/>
    </edge>
    <edge id="1o" from="0" to="1" priority="46">
        <lane id="1o_0" index="0" speed="11.11" length="442.80" shape="502.80,511.60 60.00,511.60"/>
    </edge>
    <edge id="2i" from="2" to="0" priority="78">
        <lane id="2i_0" index="0" speed="19.44" length="442.80" shape="960.00,511.60 517.20,511.60"/>
    </edge>
    <edge id="2o" from="0" to="2" priority="46">
        <lane id="2o_0" index="0" speed="11.11" length="442.80" shape="517.20,508.40 960.00,508.40"/>
    </edge>
    <edge id="3i" from="3" to="0" priority="78">
        <lane id="3i_0" index="0" speed="19.44" length="442.80" shape="511.60,60.00 511.60,502.80"/>
    </edge>
    <edge id="3o" from="0" to="3" priority="46">
        <lane id="3o_0" index="0" speed="11.11" length="442.80" shape="508.40,502.80 508.40,60.00"/>
    </edge>
    <edge id="4i" from="4" to="0" priority="78">
        <lane id="4i_0" index="0" speed="19.44" length="442.80" shape="508.40,960.00 508.40,517.20"/>
    </edge>
    <edge id="4o" from="0" to="4" priority="46">
        <lane id="4o_0" index="0" speed="11.11" length="442.80" shape="511.60,517.20 511.60,960.00"/>
    </edge>
    <edge id="51i" from="1" to="51" priority="78">
        <lane id="51i_0" index="0" speed="19.44" length="60.00" shape="60.00,511.60 0.00,511.60"/>
    </edge>
    <edge id="51o" from="51" to="1" priority="46">
        <lane id="51o_0" index="0" speed="11.11" length="60.00" shape="0.00,508.40 60.00,508.40"/>
    </edge>
    <edge id="52i" from="2" to="52" priority="78">
        <lane id="52i_0" index="0" speed="19.44" length="60.00" shape="960.00,508.40 1020.00,508.40"/>
    </edge>
    <edge id="52o" from="52" to="2" priority="46">
        <lane id="52o_0" index="0" speed="11.11" length="60.00" shape="1020.00,511.60 960.00,511.60"/>
    </edge>
    <edge id="53i" from="3" to="53" priority="78">
        <lane id="53i_0" index="0" speed="19.44" length="60.00" shape="508.40,60.00 508.40,0.00"/>
    </edge>
    <edge id="53o" from="53" to="3" priority="46">
        <lane id="53o_0" index="0" speed="11.11" length="60.00" shape="511.60,0.00 511.60,60.00"/>
    </edge>
    <edge id="54i" from="4" to="54" priority="78">
        <lane id="54i_0" index="0" speed="19.44" length="60.00" shape="511.60,960.00 511.60,1020.00"/>
    </edge>
    <edge id="54o" from="54" to="4" priority="46">
        <lane id="54o_0" index="0" speed="11.11" length="60.00" shape="508.40,1020.00 508.40,960.00"/>
    </edge>

    <tlLogic id="0" type="static" programID="0" offset="0">
        <phase duration="40" state="GGggrrrrGGggrrrr"/>
        <phase duration="5"  state="yyyyrrrryyyyrrrr"/>
        <phase duration="40" state="rrrrGGggrrrrGGgg"/>
        <phase duration="5"  state="rrrryyyyrrrryyyy"/>
    </tlLogic>

    <junction id="0" type="traffic_light" x="510.00" y="510.00" incLanes="4i_0 2i_0 3i_0 1i_0" intLanes=":0_0_0 :0_1_0 :0_16_0 :0_17_0 :0_4_0 :0_5_0 :0_18_0 :0_19_0 :0_8_0 :0_9_0 :0_20_0 :0_21_0 :0_12_0 :0_13_0 :0_22_0 :0_23_0" shape="506.80,517.20 513.20,517.20 513.64,514.98 514.20,514.20 514.98,513.64 515.98,513.31 517.20,513.20 517.20,506.80 514.98,506.36 514.20,505.80 513.64,505.02 513.31,504.02 513.20,502.80 506.80,502.80 506.36,505.02 505.80,505.80 505.02,506.36 504.02,506.69 502.80,506.80 502.80,513.20 505.02,513.64 505.80,514.20 506.36,514.98 506.69,515.98">
        <request index="0"  response="0000000000000000" foes="1000010000100000" cont="0"/>
        <request index="1"  response="0100000001000000" foes="0111110001100000" cont="0"/>
        <request index="2"  response="0100001101000000" foes="0110001111100000" cont="1"/>
        <request index="3"  response="0100001000010000" foes="0100001000010000" cont="1"/>
        <request index="4"  response="0000001000000000" foes="0100001000001000" cont="0"/>
        <request index="5"  response="0000011000000111" foes="1100011000000111" cont="0"/>
        <request index="6"  response="0011011000000110" foes="0011111000000110" cont="1"/>
        <request index="7"  response="0010000100000100" foes="0010000100000100" cont="1"/>
        <request index="8"  response="0000000000000000" foes="0010000010000100" cont="0"/>
        <request index="9"  response="0100000001000000" foes="0110000001111100" cont="0"/>
        <request index="10" response="0100000001000011" foes="1110000001100011" cont="1"/>
        <request index="11" response="0001000001000010" foes="0001000001000010" cont="1"/>
        <request index="12" response="0000000000000010" foes="0000100001000010" cont="0"/>
        <request index="13" response="0000011100000110" foes="0000011111000110" cont="0"/>
        <request index="14" response="0000011000110110" foes="0000011000111110" cont="1"/>
        <request index="15" response="0000010000100001" foes="0000010000100001" cont="1"/>
    </junction>
    <junction id="1" type="priority" x="60.00" y="510.00" incLanes="1o_0 51o_0" intLanes=":1_0_0 :1_4_0 :1_2_0 :1_5_0" shape="60.00,513.20 60.00,506.80 60.00,513.20">
        <request index="0" response="0000" foes="1000" cont="0"/>
        <request index="1" response="0100" foes="0100" cont="1"/>
        <request index="2" response="0000" foes="0010" cont="0"/>
        <request index="3" response="0001" foes="0001" cont="1"/>
    </junction>
    <junction id="2" type="priority" x="960.00" y="510.00" incLanes="52o_0 2o_0" intLanes=":2_0_0 :2_4_0 :2_2_0 :2_5_0" shape="960.00,513.20 960.00,506.80 960.00,513.20">
        <request index="0" response="0000" foes="1000" cont="0"/>
        <request index="1" response="0100" foes="0100" cont="1"/>
        <request index="2" response="0000" foes="0010" cont="0"/>
        <request index="3" response="0001" foes="0001" cont="1"/>
    </junction>
    <junction id="3" type="priority" x="510.00" y="60.00" incLanes="3o_0 53o_0" intLanes=":3_0_0 :3_4_0 :3_2_0 :3_5_0" shape="506.80,60.00 513.20,60.00 506.80,60.00">
        <request index="0" response="0000" foes="1000" cont="0"/>
        <request index="1" response="0100" foes="0100" cont="1"/>
        <request index="2" response="0000" foes="0010" cont="0"/>
        <request index="3" response="0001" foes="0001" cont="1"/>
    </junction>
    <junction id="4" type="priority" x="510.00" y="960.00" incLanes="54o_0 4o_0" intLanes=":4_0_0 :4_4_0 :4_2_0 :4_5_0" shape="506.80,960.00 513.20,960.00 506.80,960.00">
        <request index="0" response="0000" foes="1000" cont="0"/>
        <request index="1" response="0100" foes="0100" cont="1"/>
        <request index="2" response="0000" foes="0010" cont="0"/>
        <request index="3" response="0001" foes="0001" cont="1"/>
    </junction>
    <junction id="51" type="priority" x="0.00" y="510.00" incLanes="51i_0" intLanes=":51_0_0" shape="0.00,510.00 0.00,513.20 0.00,510.00">
        <request index="0" response="0" foes="0" cont="0"/>
    </junction>
    <junction id="52" type="priority" x="1020.00" y="510.00" incLanes="52i_0" intLanes=":52_0_0" shape="1020.00,510.00 1020.00,506.80 1020.00,510.00">
        <request index="0" response="0" foes="0" cont="0"/>
    </junction>
    <junction id="53" type="priority" x="510.00" y="0.00" incLanes="53i_0" intLanes=":53_0_0" shape="510.00,0.00 506.80,0.00 510.00,0.00">
        <request index="0" response="0" foes="0" cont="0"/>
    </junction>
    <junction id="54" type="priority" x="510.00" y="1020.00" incLanes="54i_0" intLanes=":54_0_0" shape="510.00,1020.00 513.20,1020.00 510.00,1020.00">
        <request index="0" response="0" foes="0" cont="0"/>
    </junction>

    <junction id=":0_16_0" type="internal" x="510.00" y="511.60" incLanes=":0_2_0 3i_0" intLanes=":0_5_0 :0_6_0 :0_7_0 :0_8_0 :0_9_0 :0_13_0 :0_14_0"/>
    <junction id=":0_17_0" type="internal" x="510.00" y="515.60" incLanes=":0_3_0 1i_0 2i_0 3i_0" intLanes=":0_4_0 :0_9_0 :0_14_0"/>
    <junction id=":0_18_0" type="internal" x="511.60" y="510.00" incLanes=":0_6_0 1i_0" intLanes=":0_1_0 :0_2_0 :0_9_0 :0_10_0 :0_11_0 :0_12_0 :0_13_0"/>
    <junction id=":0_19_0" type="internal" x="515.60" y="510.00" incLanes=":0_7_0 1i_0 3i_0 4i_0" intLanes=":0_2_0 :0_8_0 :0_13_0"/>
    <junction id=":0_20_0" type="internal" x="510.00" y="508.40" incLanes=":0_10_0 4i_0" intLanes=":0_0_0 :0_1_0 :0_5_0 :0_6_0 :0_13_0 :0_14_0 :0_15_0"/>
    <junction id=":0_21_0" type="internal" x="510.00" y="504.40" incLanes=":0_11_0 1i_0 2i_0 4i_0" intLanes=":0_1_0 :0_6_0 :0_12_0"/>
    <junction id=":0_22_0" type="internal" x="508.40" y="510.00" incLanes=":0_14_0 2i_0" intLanes=":0_1_0 :0_2_0 :0_3_0 :0_4_0 :0_5_0 :0_9_0 :0_10_0"/>
    <junction id=":0_23_0" type="internal" x="504.40" y="510.00" incLanes=":0_15_0 2i_0 3i_0 4i_0" intLanes=":0_0_0 :0_5_0 :0_10_0"/>
    <junction id=":1_4_0" type="internal" x="58.40" y="510.00" incLanes=":1_1_0 51o_0" intLanes=":1_2_0"/>
    <junction id=":1_5_0" type="internal" x="61.60" y="510.00" incLanes=":1_3_0 1o_0" intLanes=":1_0_0"/>
    <junction id=":2_4_0" type="internal" x="958.40" y="510.00" incLanes=":2_1_0 2o_0" intLanes=":2_2_0"/>
    <junction id=":2_5_0" type="internal" x="961.60" y="510.00" incLanes=":2_3_0 52o_0" intLanes=":2_0_0"/>
    <junction id=":3_4_0" type="internal" x="510.00" y="58.40" incLanes=":3_1_0 53o_0" intLanes=":3_2_0"/>
    <junction id=":3_5_0" type="internal" x="510.00" y="61.60" incLanes=":3_3_0 3o_0" intLanes=":3_0_0"/>
    <junction id=":4_4_0" type="internal" x="510.00" y="958.40" incLanes=":4_1_0 4o_0" intLanes=":4_2_0"/>
    <junction id=":4_5_0" type="internal" x="510.00" y="961.60" incLanes=":4_3_0 54o_0" intLanes=":4_0_0"/>

    <connection from="1i" to="3o" fromLane="0" toLane="0" via=":0_12_0" tl="0" linkIndex="12" dir="r" state="o"/>
    <connection from="1i" to="2o" fromLane="0" toLane="0" via=":0_13_0" tl="0" linkIndex="13" dir="s" state="o"/>
    <connection from="1i" to="4o" fromLane="0" toLane="0" via=":0_14_0" tl="0" linkIndex="14" dir="l" state="o"/>
    <connection from="1i" to="1o" fromLane="0" toLane="0" via=":0_15_0" tl="0" linkIndex="15" dir="t" state="o"/>
    <connection from="1o" to="51i" fromLane="0" toLane="0" via=":1_0_0" dir="s" state="M"/>
    <connection from="1o" to="1i" fromLane="0" toLane="0" via=":1_1_0" dir="t" state="m"/>
    <connection from="2i" to="4o" fromLane="0" toLane="0" via=":0_4_0" tl="0" linkIndex="4" dir="r" state="o"/>
    <connection from="2i" to="1o" fromLane="0" toLane="0" via=":0_5_0" tl="0" linkIndex="5" dir="s" state="o"/>
    <connection from="2i" to="3o" fromLane="0" toLane="0" via=":0_6_0" tl="0" linkIndex="6" dir="l" state="o"/>
    <connection from="2i" to="2o" fromLane="0" toLane="0" via=":0_7_0" tl="0" linkIndex="7" dir="t" state="o"/>
    <connection from="2o" to="52i" fromLane="0" toLane="0" via=":2_2_0" dir="s" state="M"/>
    <connection from="2o" to="2i" fromLane="0" toLane="0" via=":2_3_0" dir="t" state="m"/>
    <connection from="3i" to="2o" fromLane="0" toLane="0" via=":0_8_0" tl="0" linkIndex="8" dir="r" state="O"/>
    <connection from="3i" to="4o" fromLane="0" toLane="0" via=":0_9_0" tl="0" linkIndex="9" dir="s" state="O"/>
    <connection from="3i" to="1o" fromLane="0" toLane="0" via=":0_10_0" tl="0" linkIndex="10" dir="l" state="o"/>
    <connection from="3i" to="3o" fromLane="0" toLane="0" via=":0_11_0" tl="0" linkIndex="11" dir="t" state="o"/>
    <connection from="3o" to="53i" fromLane="0" toLane="0" via=":3_0_0" dir="s" state="M"/>
    <connection from="3o" to="3i" fromLane="0" toLane="0" via=":3_1_0" dir="t" state="m"/>
    <connection from="4i" to="1o" fromLane="0" toLane="0" via=":0_0_0" tl="0" linkIndex="0" dir="r" state="O"/>
    <connection from="4i" to="3o" fromLane="0" toLane="0" via=":0_1_0" tl="0" linkIndex="1" dir="s" state="O"/>
    <connection from="4i" to="2o" fromLane="0" toLane="0" via=":0_2_0" tl="0" linkIndex="2" dir="l" state="o"/>
    <connection from="4i" to="4o" fromLane="0" toLane="0" via=":0_3_0" tl="0" linkIndex="3" dir="t" state="o"/>
    <connection from="4o" to="54i" fromLane="0" toLane="0" via=":4_2_0" dir="s" state="M"/>
    <connection from="4o" to="4i" fromLane="0" toLane="0" via=":4_3_0" dir="t" state="m"/>
    <connection from="51i" to="51o" fromLane="0" toLane="0" via=":51_0_0" dir="t" state="M"/>
    <connection from="51o" to="1i" fromLane="0" toLane="0" via=":1_2_0" dir="s" state="M"/>
    <connection from="51o" to="51i" fromLane="0" toLane="0" via=":1_3_0" dir="t" state="m"/>
    <connection from="52i" to="52o" fromLane="0" toLane="0" via=":52_0_0" dir="t" state="M"/>
    <connection from="52o" to="2i" fromLane="0" toLane="0" via=":2_0_0" dir="s" state="M"/>
    <connection from="52o" to="52i" fromLane="0" toLane="0" via=":2_1_0" dir="t" state="m"/>
    <connection from="53i" to="53o" fromLane="0" toLane="0" via=":53_0_0" dir="t" state="M"/>
    <connection from="53o" to="3i" fromLane="0" toLane="0" via=":3_2_0" dir="s" state="M"/>
    <connection from="53o" to="53i" fromLane="0" toLane="0" via=":3_3_0" dir="t" state="m"/>
    <connection from="54i" to="54o" fromLane="0" toLane="0" via=":54_0_0" dir="t" state="M"/>
    <connection from="54o" to="4i" fromLane="0" toLane="0" via=":4_0_0" dir="s" state="M"/>
    <connection from="54o" to="54i" fromLane="0" toLane="0" via=":4_1_0" dir="t" state="m"/>

    <connection from=":0_0" to="1o" fromLane="0" toLane="0" dir="r" state="M"/>
    <connection from=":0_1" to="3o" fromLane="0" toLane="0" dir="s" state="M"/>
    <connection from=":0_2" to="2o" fromLane="0" toLane="0" via=":0_16_0" dir="l" state="m"/>
    <connection from=":0_16" to="2o" fromLane="0" toLane="0" dir="l" state="M"/>
    <connection from=":0_3" to="4o" fromLane="0" toLane="0" via=":0_17_0" dir="t" state="m"/>
    <connection from=":0_17" to="4o" fromLane="0" toLane="0" dir="t" state="M"/>
    <connection from=":0_4" to="4o" fromLane="0" toLane="0" dir="r" state="M"/>
    <connection from=":0_5" to="1o" fromLane="0" toLane="0" dir="s" state="M"/>
    <connection from=":0_6" to="3o" fromLane="0" toLane="0" via=":0_18_0" dir="l" state="m"/>
    <connection from=":0_18" to="3o" fromLane="0" toLane="0" dir="l" state="M"/>
    <connection from=":0_7" to="2o" fromLane="0" toLane="0" via=":0_19_0" dir="t" state="m"/>
    <connection from=":0_19" to="2o" fromLane="0" toLane="0" dir="t" state="M"/>
    <connection from=":0_8" to="2o" fromLane="0" toLane="0" dir="r" state="M"/>
    <connection from=":0_9" to="4o" fromLane="0" toLane="0" dir="s" state="M"/>
    <connection from=":0_10" to="1o" fromLane="0" toLane="0" via=":0_20_0" dir="l" state="m"/>
    <connection from=":0_20" to="1o" fromLane="0" toLane="0" dir="l" state="M"/>
    <connection from=":0_11" to="3o" fromLane="0" toLane="0" via=":0_21_0" dir="t" state="m"/>
    <connection from=":0_21" to="3o" fromLane="0" toLane="0" dir="t" state="M"/>
    <connection from=":0_12" to="3o" fromLane="0" toLane="0" dir="r" state="M"/>
    <connection from=":0_13" to="2o" fromLane="0" toLane="0" dir="s" state="M"/>
    <connection from=":0_14" to="4o" fromLane="0" toLane="0" via=":0_22_0" dir="l" state="m"/>
    <connection from=":0_22" to="4o" fromLane="0" toLane="0" dir="l" state="M"/>
    <connection from=":0_15" to="1o" fromLane="0" toLane="0" via=":0_23_0" dir="t" state="m"/>
    <connection from=":0_23" to="1o" fromLane="0" toLane="0" dir="t" state="M"/>
    <connection from=":1_0" to="51i" fromLane="0" toLane="0" dir="s" state="M"/>
    <connection from=":1_1" to="1i" fromLane="0" toLane="0" via=":1_4_0" dir="t" state="m"/>
    <connection from=":1_4" to="1i" fromLane="0" toLane="0" dir="t" state="M"/>
    <connection from=":1_2" to="1i" fromLane="0" toLane="0" dir="s" state="M"/>
    <connection from=":1_3" to="51i" fromLane="0" toLane="0" via=":1_5_0" dir="t" state="m"/>
    <connection from=":1_5" to="51i" fromLane="0" toLane="0" dir="t" state="M"/>
    <connection from=":2_0" to="2i" fromLane="0" toLane="0" dir="s" state="M"/>
    <connection from=":2_1" to="52i" fromLane="0" toLane="0" via=":2_4_0" dir="t" state="m"/>
    <connection from=":2_4" to="52i" fromLane="0" toLane="0" dir="t" state="M"/>
    <connection from=":2_2" to="52i" fromLane="0" toLane="0" dir="s" state="M"/>
    <connection from=":2_3" to="2i" fromLane="0" toLane="0" via=":2_5_0" dir="t" state="m"/>
    <connection from=":2_5" to="2i" fromLane="0" toLane="0" dir="t" state="M"/>
    <connection from=":3_0" to="53i" fromLane="0" toLane="0" dir="s" state="M"/>
    <connection from=":3_1" to="3i" fromLane="0" toLane="0" via=":3_4_0" dir="t" state="m"/>
    <connection from=":3_4" to="3i" fromLane="0" toLane="0" dir="t" state="M"/>
    <connection from=":3_2" to="3i" fromLane="0" toLane="0" dir="s" state="M"/>
    <connection from=":3_3" to="53i" fromLane="0" toLane="0" via=":3_5_0" dir="t" state="m"/>
    <connection from=":3_5" to="53i" fromLane="0" toLane="0" dir="t" state="M"/>
    <connection from=":4_0" to="4i" fromLane="0" toLane="0" dir="s" state="M"/>
    <connection from=":4_1" to="54i" fromLane="0" toLane="0" via=":4_4_0" dir="t" state="m"/>
    <connection from=":4_4" to="54i" fromLane="0" toLane="0" dir="t" state="M"/>
    <connection from=":4_2" to="54i" fromLane="0" toLane="0" dir="s" state="M"/>
    <connection from=":4_3" to="4i" fromLane="0" toLane="0" via=":4_5_0" dir="t" state="m"/>
    <connection from=":4_5" to="4i" fromLane="0" toLane="0" dir="t" state="M"/>
    <connection from=":51_0" to="51o" fromLane="0" toLane="0" dir="t" state="M"/>
    <connection from=":52_0" to="52o" fromLane="0" toLane="0" dir="t" state="M"/>
    <connection from=":53_0" to="53o" fromLane="0" toLane="0" dir="t" state="M"/>
    <connection from=":54_0" to="54o" fromLane="0" toLane="0" dir="t" state="M"/>

</net>
