<?xml version="1.0" encoding="UTF-8"?>
<edges xmlns:xsi="http://www.w3.org/2001/XMLSchema-instance" xsi:noNamespaceSchemaLocation="http://sumo.dlr.de/xsd/edges_file.xsd">
   <edge id="10" from="1" to="0" priority="78" numLanes="1" speed="19.444" />
   <edge id="01" from="0" to="1" priority="46" numLanes="1" speed="11.111" />

   <edge id="20" from="2" to="0" priority="78" numLanes="1" speed="19.444" />
   <edge id="02" from="0" to="2" priority="46" numLanes="1" speed="11.111" />

   <edge id="30" from="3" to="0" priority="78" numLanes="1" speed="19.444" />
   <edge id="03" from="0" to="3" priority="46" numLanes="1" speed="11.111" />

   <edge id="40" from="4" to="0" priority="78" numLanes="1" speed="19.444" />
   <edge id="04" from="0" to="4" priority="46" numLanes="1" speed="11.111" />
</edges>
