<?xml version="1.0" encoding="UTF-8"?>

<!-- generated on Fri Nov 23 21:06:46 2018 by Eclipse SUMO duarouter Version 1.0.1
<configuration xmlns:xsi="http://www.w3.org/2001/XMLSchema-instance" xsi:noNamespaceSchemaLocation="http://sumo.dlr.de/xsd/duarouterConfiguration.xsd">

    <input>
        <net-file value="map.net.xml"/>
        <route-files value="trips.trips.xml"/>
    </input>

    <output>
        <output-file value="map.rou.xml"/>
        <alternatives-output value="map.rou.alt.xml"/>
    </output>

    <time>
        <begin value="0"/>
        <end value="100.0"/>
    </time>

    <report>
        <no-warnings value="true"/>
        <ignore-errors value="true"/>
        <no-step-log value="true"/>
    </report>

</configuration>
-->

<routes xmlns:xsi="http://www.w3.org/2001/XMLSchema-instance" xsi:noNamespaceSchemaLocation="http://sumo.dlr.de/xsd/routes_file.xsd">
    <vehicle id="0" depart="0.00">
        <route edges="4344252#7 -184817881 461406768 165824065#0 165824065#1 165824065#2 -149728617#1 -149728617#0 149728626#0"/>
    </vehicle>
    <vehicle id="1" depart="1.00">
        <route edges="3314142#3 3314142#4 -363463333#2 -363463333#1 -363463333#0"/>
    </vehicle>
    <vehicle id="2" depart="2.00">
        <route edges="-17263578#5 17263578#5 149728617#0 149728617#1 149728631#0 149728631#1 4344250#0 -184817881"/>
    </vehicle>
    <vehicle id="3" depart="3.00">
        <route edges="307041983 -17263578#4 -17263578#3 -17263578#2"/>
    </vehicle>
    <vehicle id="4" depart="4.00">
        <route edges="4342883#0 4342883#1 4342883#2 4342883#3 4342883#4 -149761974#3 -149761974#2 -149761974#1"/>
    </vehicle>
    <vehicle id="5" depart="5.00">
        <route edges="3314142#2 3314142#3 3314142#4 461406768 165824065#0 165824065#1 165824065#2 -149728617#1 -149728617#0 149728626#0"/>
    </vehicle>
    <vehicle id="6" depart="6.00">
        <route edges="-4342883#3 72267225 -17263578#3"/>
    </vehicle>
    <vehicle id="8" depart="8.00">
        <route edges="4344252#0 4344252#1 4352321#0 4352321#1 4342879#0 4342879#1 17263578#4 17263578#5 -4342880 -4342883#4 -4342883#3 -4342883#2 5033342"/>
    </vehicle>
    <vehicle id="9" depart="9.00">
        <route edges="4344252#6 4344252#7 -184817881 461406768 165824065#0 165824065#1 165824065#2 -149728617#1 -149728617#0 -4342880 -4342883#4 -4342883#3 -4342883#2 5033342"/>
    </vehicle>
    <vehicle id="11" depart="11.00">
        <route edges="23370639#3 4352404#0 4352404#1 4352404#2 -4352404#2"/>
    </vehicle>
    <vehicle id="12" depart="12.00">
        <route edges="117158445 72267225 17263578#4 17263578#5 149728617#0 149728617#1 149728631#0 149728631#1 23370639#0 23370639#1 23370639#2 23370639#3"/>
    </vehicle>
    <vehicle id="13" depart="13.00">
        <route edges="3314142#2 3314142#3 3314142#4 461406768 165824065#0 165824065#1 165824065#2 -149728617#1 -149728617#0 -17263578#5 -17263578#4 17263578#4"/>
    </vehicle>
    <vehicle id="15" depart="15.00">
        <route edges="4344252#6 4344252#7 -184817881 461406768 165824065#0 165824071 23370639#0 23370639#1 23370639#2"/>
    </vehicle>
    <vehicle id="16" depart="16.00">
        <route edges="4342882#0 -4342882#0 4344252#6 4344252#7 -184817881 461406768 165824065#0 165824065#1 165824065#2 -149728617#1 -149728617#0 -4342880 -4342883#4 -4342883#3 -4342883#2 4342883#2"/>
    </vehicle>
    <vehicle id="17" depart="17.00">
        <route edges="-4352404#2 -4352404#1 -4352404#0 4342879#0 4342879#1 17263578#4"/>
    </vehicle>
    <vehicle id="19" depart="19.00">
        <route edges="4344278#2 4344278#3 4344278#4 4344278#5 39765566#0 39765566#1 4352321#0 4352321#1 4342879#0 4342879#1 -17263578#3 -17263578#2"/>
    </vehicle>
    <vehicle id="20" depart="20.00">
        <route edges="-184817881 461406768 165824065#0 165824065#1 165824065#2 -149728617#1 -149728617#0 -4342880 -4342883#4 307041983"/>
    </vehicle>
    <vehicle id="21" depart="21.00">
        <route edges="-149728626#0 149728617#0 149728617#1 149728631#0 149728631#1 23370639#0 23370639#1 23370639#2 23370639#3 4352404#0 4352404#1 -4352404#1"/>
    </vehicle>
    <vehicle id="22" depart="22.00">
        <route edges="72267225 17263578#4 17263578#5 149728617#0 149728617#1 149728631#0 149728631#1 23370639#0 23370639#1 23370639#2 23370639#3 4342879#0 4342879#1"/>
    </vehicle>
    <vehicle id="23" depart="23.00">
        <route edges="23370639#3 4342879#0 4342879#1 17263578#4 17263578#5 -4342880 -149761974#3 149761974#3"/>
    </vehicle>
    <vehicle id="25" depart="25.00">
        <route edges="4344252#6 4344252#7 -184817881 461406768 165824065#0 165824071 23370639#0 23370639#1"/>
    </vehicle>
    <vehicle id="28" depart="28.00">
        <route edges="4344250#3 4344250#4 4344278#0 4344278#1 4344278#2 4344278#3 4344278#4 4344278#5 39765566#0 39765566#1 4352321#0 4352321#1 4352404#0 4352404#1 4352404#2 -4352404#2"/>
    </vehicle>
    <vehicle id="29" depart="29.00">
        <route edges="-149728626#0 -17263578#5 17263578#5"/>
    </vehicle>
    <vehicle id="30" depart="30.00">
        <route edges="-149728626#2 -149728626#1 -149728626#0 149728617#0 149728617#1 149728631#0 149728631#1 4344250#0 -184817881 -363463333#2"/>
    </vehicle>
    <vehicle id="31" depart="31.00">
        <route edges="4342883#1 4342883#2 72267225 17263578#4 17263578#5 149728617#0 149728617#1 149728631#0 149728631#1 23370639#0 23370639#1 23370639#2 23370639#3 4342879#0 4342879#1"/>
    </vehicle>
    <vehicle id="32" depart="32.00">
        <route edges="39765566#0 39765566#1 4352321#0 4352321#1 4342879#0 4342879#1 17263578#4 17263578#5 -4342880 -4342883#4"/>
    </vehicle>
    <vehicle id="33" depart="33.00">
        <route edges="-17263578#2 17263578#2 17263578#3 17263578#4 17263578#5 149728617#0 149728617#1 149728631#0 149728631#1 4344250#0 4344250#1 4344250#2 4344250#3 4344250#4 4344250#5 4344250#6 149728621#0 149728621#1"/>
    </vehicle>
    <vehicle id="36" depart="36.00">
        <route edges="307041983 17263578#5 149728617#0 149728617#1 149728631#0 149728631#1 23370639#0 23370639#1"/>
    </vehicle>
    <vehicle id="37" depart="37.00">
        <route edges="-149728617#1 -149728617#0 -4342880 -149761974#3 -149761974#2 -149761974#1 -149761974#0"/>
    </vehicle>
    <vehicle id="40" depart="40.00">
        <route edges="-4342883#1 4342883#1 4342883#2 4342883#3 307041983"/>
    </vehicle>
    <vehicle id="41" depart="41.00">
        <route edges="-149761974#1 149761974#1 149761974#2 149761974#3 4342880 149728617#0 149728617#1 149728631#0 149728631#1 23370639#0 23370639#1"/>
    </vehicle>
    <vehicle id="42" depart="42.00">
        <route edges="-4342883#2 4342883#2 72267225 -17263578#3"/>
    </vehicle>
    <vehicle id="43" depart="43.00">
        <route edges="149761974#3 4342880 149728617#0 149728617#1 149728631#0 149728631#1 23370639#0 23370639#1 23370639#2 -4342882#1 -4342882#0 5032991#0"/>
    </vehicle>
    <vehicle id="45" depart="45.00">
        <route edges="-149728626#0 149728617#0 149728617#1 149728631#0 149728631#1 4344250#0 4344250#1 4344250#2 4344250#3 4344250#4 4344278#0 4344278#1 4344278#2 4344278#3 4344278#4 4344278#5 -4352319"/>
    </vehicle>
    <vehicle id="46" depart="46.00">
        <route edges="5033341 149761974#2 149761974#3 4342880 149728617#0 149728617#1"/>
    </vehicle>
    <vehicle id="47" depart="47.00">
        <route edges="149728626#0 -149728626#0 -4342880 -4342883#4 4342883#4"/>
    </vehicle>
    <vehicle id="48" depart="48.00">
        <route edges="-149728617#1 149728617#1 149728631#0 149728631#1 4344250#0 -184817881 -363463333#2 363463333#2"/>
    </vehicle>
    <vehicle id="49" depart="49.00">
        <route edges="4344278#1 4344278#2 4344278#3 4344278#4 4344278#5 39765566#0 39765566#1 4352321#0 4352321#1 4342879#0 4342879#1 17263578#4 17263578#5 -4342880"/>
    </vehicle>
    <vehicle id="50" depart="50.00">
        <route edges="4342883#3 4342883#4 4342880 149728617#0 149728617#1 149728631#0 149728631#1 4344250#0 4344250#1 4344250#2 4344250#3 4344250#4 4344278#0 4344278#1 4344278#2 4344278#3 4344278#4 4344278#5 -4352319"/>
    </vehicle>
    <vehicle id="51" depart="51.00">
        <route edges="23370639#3 -4352321#1 -4352321#0 4344252#2 4344252#3 4344252#4 4344252#5 5032991#0 4344278#2 4344278#3 4344278#4 4344278#5 -4352319"/>
    </vehicle>
    <vehicle id="52" depart="52.00">
        <route edges="4344252#5 4344252#6 4344252#7 -184817881 461406768 165824065#0 165824065#1 165824065#2 -149728617#1 -149728617#0 -4342880 -149761974#3 -149761974#2 -149761974#1 -149761974#0"/>
    </vehicle>
    <vehicle id="53" depart="53.00">
        <route edges="4344252#4 4344252#5 4342882#0 4342882#1 23370639#3 4342879#0 4342879#1"/>
    </vehicle>
    <vehicle id="54" depart="54.00">
        <route edges="149761974#0 149761974#1 149761974#2 149761974#3 -4342883#4 -4342883#3 72267225"/>
    </vehicle>
    <vehicle id="55" depart="55.00">
        <route edges="-4352321#1 4352321#1 4342879#0 4342879#1 17263578#4 17263578#5 -4342880 -4342883#4 -4342883#3 -4342883#2 -4342883#1 -4342883#0"/>
    </vehicle>
    <vehicle id="56" depart="56.00">
        <route edges="-363463333#2 363463333#2 461406768 165824065#0 165824071 23370639#0 23370639#1 23370639#2 23370639#3 -4352321#1 4352321#1"/>
    </vehicle>
    <vehicle id="58" depart="58.00">
        <route edges="-17263578#3 -17263578#2 -17263578#1 -17263578#0"/>
    </vehicle>
    <vehicle id="59" depart="59.00">
        <route edges="4344252#2 4344252#3 4344252#4 4344252#5 4344252#6 4344252#7 -184817881 461406768 165824065#0 165824065#1 165824065#2 -149728617#1 -149728617#0 -4342880 -4342883#4 -4342883#3"/>
    </vehicle>
    <vehicle id="60" depart="60.00">
        <route edges="4342879#1 17263578#4 17263578#5 -17263578#5"/>
    </vehicle>
    <vehicle id="61" depart="61.00">
        <route edges="-149728617#1 149728617#1 149728631#0 149728631#1 4344250#0 4344250#1 4344250#2 4344250#3 4344250#4 4344278#0 4344278#1 4344278#2 4344278#3 4344278#4 4344278#5 -4352319"/>
    </vehicle>
    <vehicle id="62" depart="62.00">
        <route edges="5033341 149761974#2 149761974#3 4342880 149728617#0 149728617#1 149728631#0 149728631#1 4344250#0 -184817881 461406768"/>
    </vehicle>
    <vehicle id="63" depart="63.00">
        <route edges="-4352404#1 -4352404#0 -4352321#1 -4352321#0 4344252#2 4344252#3 4344252#4 4344252#5 4344252#6 4344252#7 4344250#1 4344250#2 4344250#3 4344250#4 4344278#0 4344278#1"/>
    </vehicle>
    <vehicle id="64" depart="64.00">
        <route edges="-184817881 461406768 165824065#0 165824065#1 165824065#2 -149728617#1 -149728617#0 -4342880 -4342883#4 4342883#4"/>
    </vehicle>
    <vehicle id="65" depart="65.00">
        <route edges="4342880"/>
    </vehicle>
    <vehicle id="66" depart="66.00">
        <route edges="307041983 17263578#5 149728617#0 149728617#1 149728631#0 149728631#1 4344250#0 4344250#1 4344250#2"/>
    </vehicle>
    <vehicle id="67" depart="67.00">
        <route edges="117158445 72267225 17263578#4 17263578#5 149728617#0 149728617#1 149728631#0 149728631#1 4344250#0 4344250#1 4344250#2 4344250#3 4344250#4 4344250#5 4344250#6 149728621#0"/>
    </vehicle>
    <vehicle id="69" depart="69.00">
        <route edges="-4352404#1 -4352404#0 4342879#0 4342879#1 17263578#4 17263578#5 -4342880 -149761974#3 -149761974#2 -149761974#1 -149761974#0"/>
    </vehicle>
    <vehicle id="73" depart="73.00">
        <route edges="17263578#4 17263578#5"/>
    </vehicle>
    <vehicle id="74" depart="74.00">
        <route edges="72267225 17263578#4 17263578#5 149728626#0"/>
    </vehicle>
    <vehicle id="75" depart="75.00">
        <route edges="23370639#3 4342879#0 4342879#1 17263578#4 17263578#5 149728626#0"/>
    </vehicle>
    <vehicle id="76" depart="76.00">
        <route edges="-4352404#1 -4352404#0 4342879#0 4342879#1 17263578#4"/>
    </vehicle>
    <vehicle id="77" depart="77.00">
        <route edges="-184817881 461406768 165824065#0 165824071 23370639#0 23370639#1 23370639#2 -4342882#1 -4342882#0 4342882#0"/>
    </vehicle>
    <vehicle id="78" depart="78.00">
        <route edges="4342880 -4342880 -4342883#4 -4342883#3 -4342883#2 -4342883#1 4342883#1"/>
    </vehicle>
    <vehicle id="79" depart="79.00">
        <route edges="149761974#1 149761974#2 149761974#3 4342880 -4342880"/>
    </vehicle>
    <vehicle id="80" depart="80.00">
        <route edges="165824071 4344250#0"/>
    </vehicle>
    <vehicle id="81" depart="81.00">
        <route edges="-4342883#4 307041983"/>
    </vehicle>
    <vehicle id="82" depart="82.00">
        <route edges="4344278#5 39765566#0 39765566#1 4352321#0 4352321#1 4342879#0 4342879#1 17263578#4 17263578#5 -4342880 -4342883#4 4342883#4"/>
    </vehicle>
    <vehicle id="83" depart="83.00">
        <route edges="3314142#2 3314142#3 3314142#4 461406768 165824065#0 165824065#1 165824065#2 -149728617#1 -149728617#0 -17263578#5 -17263578#4 -17263578#3"/>
    </vehicle>
    <vehicle id="84" depart="84.00">
        <route edges="4342883#3 4342883#4 4342880 149728617#0"/>
    </vehicle>
    <vehicle id="85" depart="85.00">
        <route edges="23370639#3 -4352321#1 -4352321#0 4344252#2 4344252#3 4344252#4 4344252#5 5032991#0 4344278#2 4344278#3"/>
    </vehicle>
    <vehicle id="86" depart="86.00">
        <route edges="149761974#0 149761974#1 149761974#2 149761974#3 -4342883#4 -4342883#3 72267225"/>
    </vehicle>
    <vehicle id="87" depart="87.00">
        <route edges="17263578#5 -4342880 -4342883#4 307041983"/>
    </vehicle>
    <vehicle id="89" depart="89.00">
        <route edges="17263578#5 -4342880 -149761974#3 -149761974#2 -149761974#1 149761974#1"/>
    </vehicle>
    <vehicle id="90" depart="90.00">
        <route edges="4344278#2 4344278#3 4344278#4 4344278#5 39765566#0 39765566#1 4344252#2 4344252#3 4344252#4 4344252#5 4344252#6 4344252#7 4344250#1 4344250#2 4344250#3 4344250#4 4344250#5 4344250#6 149728621#0"/>
    </vehicle>
    <vehicle id="92" depart="92.00">
        <route edges="17263578#0 17263578#1 17263578#2 17263578#3 17263578#4 17263578#5 -4342880 -4342883#4"/>
    </vehicle>
    <vehicle id="93" depart="93.00">
        <route edges="23370639#1 23370639#2 23370639#3 -4352321#1 -4352321#0 4344252#2 4344252#3 4344252#4"/>
    </vehicle>
    <vehicle id="94" depart="94.00">
        <route edges="4342883#3 4342883#4 4342880 149728617#0 149728617#1 149728631#0 149728631#1 23370639#0 23370639#1 23370639#2 23370639#3 4352404#0 4352404#1"/>
    </vehicle>
    <vehicle id="95" depart="95.00">
        <route edges="17263578#4 17263578#5 -4342880 -4342883#4 -4342883#3 -4342883#2 -4342883#1 -4342883#0"/>
    </vehicle>
    <vehicle id="96" depart="96.00">
        <route edges="39765566#1 4352321#0 4352321#1 4342879#0 4342879#1 17263578#4 17263578#5 -4342880 4342880"/>
    </vehicle>
    <vehicle id="97" depart="97.00">
        <route edges="149761974#0 149761974#1 149761974#2 149761974#3 4342880 -17263578#5 -17263578#4"/>
    </vehicle>
    <vehicle id="98" depart="98.00">
        <route edges="4342883#1 4342883#2 4342883#3 4342883#4 -149761974#3 -149761974#2 -149761974#1 -149761974#0"/>
    </vehicle>
    <vehicle id="99" depart="99.00">
        <route edges="4342879#1 17263578#4 17263578#5 149728617#0 149728617#1 149728631#0 149728631#1 23370639#0 23370639#1 23370639#2 -4342882#1 -4342882#0 5032991#0"/>
    </vehicle>
</routes>
