<?xml version="1.0" encoding="UTF-8"?>

<!-- generated on Fri Nov 30 14:46:26 2018 by Eclipse SUMO polyconvert Version 1.0.1
<configuration xmlns:xsi="http://www.w3.org/2001/XMLSchema-instance" xsi:noNamespaceSchemaLocation="http://sumo.dlr.de/xsd/polyconvertConfiguration.xsd">

    <input>
        <net-file value="map.net.xml"/>
        <osm-files value="map.osm"/>
        <type-file value="typemap.xml"/>
    </input>

    <output>
        <output-file value="map.poly.xml"/>
    </output>

    <processing>
        <poi-layer-offset value="5"/>
    </processing>

</configuration>
-->

<additional xmlns:xsi="http://www.w3.org/2001/XMLSchema-instance" xsi:noNamespaceSchemaLocation="http://sumo.dlr.de/xsd/additional_file.xsd">
    <location netOffset="-458330.21,-5098265.75" convBoundary="-547.78,-2065.58,5818.64,3558.64" origBoundary="14.454210,46.018392,14.536774,46.068767" projParameter="+proj=utm +zone=33 +ellps=WGS84 +datum=WGS84 +units=m +no_defs"/>

    <poly id="103654104" type="amenity" color="237,199,199" fill="1" layer="-1.00" shape="2807.776990,1108.546669 2855.763206,1095.266103 2852.929167,1085.083883 2849.229585,1086.107216 2847.915449,1081.382128 2890.626727,1069.557333 2887.776911,1059.319642 2874.994368,1062.855749 2848.286249,1070.246365 2842.016529,1047.730155 2823.873860,1052.755739 2829.961422,1074.595296 2831.799610,1074.083698 2832.781179,1077.599758 2831.329128,1077.997809 2834.653815,1089.910272 2804.879651,1098.153757 2807.776990,1108.546669"/>
    <poly id="103654104#1" type="building" color="255,230,230" fill="1" layer="-1.00" shape="2807.776990,1108.546669 2855.763206,1095.266103 2852.929167,1085.083883 2849.229585,1086.107216 2847.915449,1081.382128 2890.626727,1069.557333 2887.776911,1059.319642 2874.994368,1062.855749 2848.286249,1070.246365 2842.016529,1047.730155 2823.873860,1052.755739 2829.961422,1074.595296 2831.799610,1074.083698 2832.781179,1077.599758 2831.329128,1077.997809 2834.653815,1089.910272 2804.879651,1098.153757 2807.776990,1108.546669"/>
    <poly id="104403598" type="building" color="255,230,230" fill="1" layer="-1.00" shape="2039.418471,700.284593 2035.221290,709.367246 2015.680444,700.392960 2019.877603,691.310295 2039.418471,700.284593"/>
    <poly id="105265447" type="building" color="255,230,230" fill="1" layer="-1.00" shape="1744.495600,1258.850956 1737.163384,1277.098704 1754.468996,1284.008786 1761.808991,1265.761009 1744.495600,1258.850956"/>
    <poly id="105694988" type="amenity" color="237,199,199" fill="1" layer="-1.00" shape="2117.532746,638.259602 2119.752102,639.256468 2121.364903,636.168305 2122.660128,635.437758 2123.855309,635.996755 2124.227309,637.294378 2123.638816,638.431500 2128.582089,640.677556 2122.167012,655.041102 2112.770427,650.934750 2113.488452,649.485680 2112.463778,648.970035 2117.532746,638.259602"/>
    <poly id="105694988#1" type="building" color="255,230,230" fill="1" layer="-1.00" shape="2117.532746,638.259602 2119.752102,639.256468 2121.364903,636.168305 2122.660128,635.437758 2123.855309,635.996755 2124.227309,637.294378 2123.638816,638.431500 2128.582089,640.677556 2122.167012,655.041102 2112.770427,650.934750 2113.488452,649.485680 2112.463778,648.970035 2117.532746,638.259602"/>
    <poly id="109056035" type="amenity" color="237,199,199" fill="1" layer="-1.00" shape="2784.423562,1092.116191 2800.790730,1086.523914 2783.111348,1035.023997 2766.743988,1040.605209 2784.423562,1092.116191"/>
    <poly id="109061244" type="amenity" color="237,199,199" fill="1" layer="-1.00" shape="2874.994368,1062.855749 2887.776911,1059.319642 2874.814217,1002.334166 2861.417938,1006.718619 2874.994368,1062.855749"/>
    <poly id="109061244#1" type="building" color="255,230,230" fill="1" layer="-1.00" shape="2874.994368,1062.855749 2887.776911,1059.319642 2874.814217,1002.334166 2861.417938,1006.718619 2874.994368,1062.855749"/>
    <poly id="109565147" type="building" color="255,230,230" fill="1" layer="-1.00" shape="2865.836427,859.478476 2925.411100,848.003261 2919.832306,819.693700 2917.792101,816.395402 2911.029175,817.549085 2913.622855,832.566211 2862.216311,841.212256 2865.836427,859.478476"/>
    <poly id="109565148" type="building" color="255,230,230" fill="1" layer="-1.00" shape="2872.341735,888.671051 2869.320061,873.278856 2889.690459,869.294949 2888.755282,864.545245 2902.549373,861.847255 2903.636438,867.373788 2930.737898,862.092080 2933.615335,876.718537 2872.341735,888.671051"/>
    <poly id="109621145" type="parking" color="184,184,179" fill="1" layer="-1.00" shape="3119.422601,1109.732062 3175.418560,1111.515079 3166.811712,1040.457236 3076.435979,1061.600967 3079.485942,1082.837573 3111.678704,1075.269170 3119.422601,1109.732062"/>
    <poly id="111584189" type="amenity" color="237,199,199" fill="1" layer="-1.00" shape="2049.489486,419.550575 2061.998001,421.392356 2062.925109,415.153005 2066.642782,415.695769 2068.333858,404.318128 1999.997531,394.246719 1998.277202,405.869016 2050.379395,413.544797 2049.489486,419.550575"/>
    <poly id="111584189#1" type="building" color="255,230,230" fill="1" layer="-1.00" shape="2049.489486,419.550575 2061.998001,421.392356 2062.925109,415.153005 2066.642782,415.695769 2068.333858,404.318128 1999.997531,394.246719 1998.277202,405.869016 2050.379395,413.544797 2049.489486,419.550575"/>
    <poly id="111584190" type="building" color="255,230,230" fill="1" layer="-1.00" shape="2007.490038,383.776148 2021.215874,385.987788 2027.050361,349.938801 2015.191223,348.026241 2015.831337,344.088752 1994.429159,340.648780 1991.876502,356.398697 2011.411854,359.539567 2007.490038,383.776148"/>
    <poly id="111585029" type="amenity" color="237,199,199" fill="1" layer="-1.00" shape="2711.824609,1457.311681 2718.469561,1454.747392 2717.332273,1451.076776 2720.704511,1449.710984 2721.803679,1453.470731 2729.567796,1450.488259 2734.097940,1462.170826 2716.354853,1469.005347 2711.824609,1457.311681"/>
    <poly id="111585029#1" type="building" color="255,230,230" fill="1" layer="-1.00" shape="2711.824609,1457.311681 2718.469561,1454.747392 2717.332273,1451.076776 2720.704511,1449.710984 2721.803679,1453.470731 2729.567796,1450.488259 2734.097940,1462.170826 2716.354853,1469.005347 2711.824609,1457.311681"/>
    <poly id="111585218" type="building" color="255,230,230" fill="1" layer="-1.00" shape="987.308516,1438.265254 981.411852,1421.670678 956.565702,1430.457263 952.198378,1418.174877 982.169814,1407.587713 971.204334,1376.759801 983.793485,1372.309873 995.161021,1404.279610 1001.528886,1402.026405 1000.756340,1399.853703 1024.143881,1391.588046 1013.281067,1361.048276 1030.902888,1354.820749 1052.305131,1415.002489 1034.683462,1421.229957 1030.261180,1408.803435 1007.267295,1416.922023 1005.446377,1411.811764 999.340969,1413.974341 1005.671086,1431.777197 987.308516,1438.265254"/>
    <poly id="122121403" type="amenity" color="237,199,199" fill="1" layer="-1.00" shape="3229.136168,1577.394318 3221.635091,1551.896501 3278.139017,1535.299305 3285.075604,1559.634030 3280.489290,1561.095972 3244.739257,1572.241314 3229.136168,1577.394318"/>
    <poly id="122121403#1" type="building" color="255,230,230" fill="1" layer="-1.00" shape="3229.136168,1577.394318 3221.635091,1551.896501 3278.139017,1535.299305 3285.075604,1559.634030 3280.489290,1561.095972 3244.739257,1572.241314 3229.136168,1577.394318"/>
    <poly id="122579468" type="amenity" color="237,199,199" fill="1" layer="-1.00" shape="2097.255415,843.402882 2104.978344,826.708655 2162.420167,853.184547 2171.412520,857.049119 2198.993306,869.894610 2211.246607,875.527243 2226.270241,882.431055 2218.150290,899.994347 2174.414136,879.896746 2158.640103,914.020482 2133.536074,902.492615 2139.297655,890.022174 2121.162136,881.694100 2131.571191,859.171489 2097.255415,843.402882"/>
    <poly id="122579468#1" type="building" color="255,230,230" fill="1" layer="-1.00" shape="2097.255415,843.402882 2104.978344,826.708655 2162.420167,853.184547 2171.412520,857.049119 2198.993306,869.894610 2211.246607,875.527243 2226.270241,882.431055 2218.150290,899.994347 2174.414136,879.896746 2158.640103,914.020482 2133.536074,902.492615 2139.297655,890.022174 2121.162136,881.694100 2131.571191,859.171489 2097.255415,843.402882"/>
    <poly id="124719757" type="building" color="255,230,230" fill="1" layer="-1.00" shape="2450.759087,623.528303 2485.115742,639.598621 2487.925168,633.625140 2499.946475,639.248713 2496.633094,646.280959 2530.368615,662.055475 2522.940285,677.836156 2498.797046,666.556252 2493.063635,678.737270 2514.692421,688.844240 2504.454754,710.598413 2465.356892,692.324821 2476.281470,669.099531 2480.029970,661.142275 2468.171735,655.606592 2453.727777,686.309926 2427.077668,673.846256 2450.759087,623.528303"/>
    <poly id="13231316" type="tourism" color="207,245,201" fill="1" layer="-2.00" shape="852.079227,1735.686442 806.389597,1797.557055 731.112989,1884.258393 698.900175,1905.206328 639.789060,1955.111849 587.562524,2026.838984 549.733538,2100.881534 598.683709,2117.977201 633.491972,2117.567263 700.033072,2132.368672 749.919896,2163.626168 758.752554,2243.701937 780.699569,2299.756911 816.736387,2369.218621 861.704296,2399.809644 934.498925,2377.093775 1021.635771,2280.605233 1046.207119,2227.175609 1101.395015,2195.777862 1135.519105,2122.085391 1117.967009,2093.956176 1116.001164,2071.502160 1134.983805,2031.398816 1104.126349,2006.890653 1031.445399,1963.213906 954.831870,1940.342076 928.593397,1924.282125 921.559484,1895.950520 909.071321,1756.586883 865.046907,1732.444876 852.079227,1735.686442"/>
    <poly id="138301396" type="building" color="255,230,230" fill="1" layer="-1.00" shape="2920.915274,1229.067973 2931.906136,1231.021052 2933.248806,1215.701365 2934.593707,1215.492902 2935.379487,1207.576782 2936.405422,1205.859202 2936.586657,1199.002450 2923.395574,1201.507689 2920.915274,1229.067973"/>
    <poly id="138301539" type="building" color="255,230,230" fill="1" layer="-1.00" shape="2987.194062,1472.453277 2961.999967,1468.133809 2957.051159,1473.464972 2964.108149,1499.509718 2970.707905,1500.823797 2989.244712,1478.684892 2987.194062,1472.453277"/>
    <poly id="138301641" type="building" color="255,230,230" fill="1" layer="-1.00" shape="2747.842966,1258.570980 2758.731708,1254.157673 2752.075443,1237.832932 2764.183506,1232.923036 2757.896680,1217.518185 2734.892135,1226.852583 2747.842966,1258.570980"/>
    <poly id="138301642" type="building" color="255,230,230" fill="1" layer="-1.00" shape="2662.800708,1160.986073 2683.140474,1149.890488 2672.800681,1131.055801 2662.399406,1136.721735 2667.385435,1145.812452 2650.014144,1155.289263 2653.168546,1161.035991 2655.859404,1159.563372 2657.276205,1162.154418 2662.025773,1159.568748 2662.800708,1160.986073"/>
    <poly id="138301793" type="building" color="255,230,230" fill="1" layer="-1.00" shape="2757.697543,1282.720015 2769.257636,1278.035815 2768.015968,1274.988077 2771.588972,1273.543268 2769.577125,1268.600380 2765.726308,1270.158058 2763.604389,1264.938086 2768.165141,1263.087030 2766.381297,1258.720485 2761.419298,1260.740746 2758.731708,1254.157673 2747.842966,1258.570980 2757.697543,1282.720015"/>
    <poly id="138301801" type="building" color="255,230,230" fill="1" layer="-1.00" shape="2765.894066,1250.179045 2760.663895,1237.923098 2771.119297,1233.490330 2776.349450,1245.746285 2765.894066,1250.179045"/>
    <poly id="138301805" type="building" color="255,230,230" fill="1" layer="-1.00" shape="2767.575603,1306.924475 2779.135659,1302.240292 2769.257636,1278.035815 2757.697543,1282.720015 2767.575603,1306.924475"/>
    <poly id="138301925" type="building" color="255,230,230" fill="1" layer="-1.00" shape="2873.686478,1219.976415 2862.063528,1219.627437 2857.369644,1232.279354 2869.412970,1234.270132 2873.686478,1219.976415"/>
    <poly id="138301926" type="building" color="255,230,230" fill="1" layer="-1.00" shape="2921.641046,1266.941503 2928.954003,1257.373182 2913.802136,1245.801773 2906.523562,1255.914345 2921.641046,1266.941503"/>
    <poly id="138306456" type="building" color="255,230,230" fill="1" layer="-1.00" shape="2837.889250,1328.114124 2832.547694,1311.658783 2808.521460,1318.432666 2814.864086,1335.359451 2837.889250,1328.114124"/>
    <poly id="138306458" type="building" color="255,230,230" fill="1" layer="-1.00" shape="2921.641046,1266.941503 2928.954003,1257.373182 2944.488464,1269.508892 2939.930666,1275.526500 2937.789943,1278.362213 2921.641046,1266.941503"/>
    <poly id="138306459" type="building" color="255,230,230" fill="1" layer="-1.00" shape="2913.952830,1304.156876 2910.176124,1291.680543 2898.931298,1294.840258 2902.803101,1307.671544 2913.952830,1304.156876"/>
    <poly id="138306461" type="building" color="255,230,230" fill="1" layer="-1.00" shape="2937.580479,1296.719242 2934.009578,1284.974940 2921.868837,1288.384696 2925.635408,1300.483318 2937.580479,1296.719242"/>
    <poly id="138306462" type="building" color="255,230,230" fill="1" layer="-1.00" shape="2925.635408,1300.483318 2921.868837,1288.384696 2910.176124,1291.680543 2913.952830,1304.156876 2925.635408,1300.483318"/>
    <poly id="138306463" type="building" color="255,230,230" fill="1" layer="-1.00" shape="2804.498805,1306.246839 2801.110714,1295.312576 2825.550875,1287.913826 2827.286866,1294.514043 2828.479602,1298.395441 2804.498805,1306.246839"/>
    <poly id="138306464" type="building" color="255,230,230" fill="1" layer="-1.00" shape="2966.915536,1263.056711 2960.327176,1242.675735 2975.476193,1237.802694 2976.825462,1241.983139 2992.229310,1237.030759 2994.896109,1245.269631 3024.923986,1235.614342 3025.720856,1238.076027 3035.225759,1235.027465 3036.235554,1238.132265 3057.198817,1231.400709 3063.053160,1249.519701 3056.258483,1251.706772 3057.197313,1254.600908 3003.048421,1272.007540 2998.795835,1258.878583 2983.669992,1263.740310 2981.886917,1258.240357 2966.915536,1263.056711"/>
    <poly id="138306466" type="building" color="255,230,230" fill="1" layer="-1.00" shape="2955.115927,1291.197797 2947.061628,1281.303919 2934.009578,1284.974940 2937.580479,1296.719242 2955.115927,1291.197797"/>
    <poly id="138306467" type="building" color="255,230,230" fill="1" layer="-1.00" shape="3007.449871,1197.957066 3006.644205,1184.239791 3034.121629,1178.667267 3036.841583,1191.683639 3031.208729,1192.852328 3031.607620,1194.772062 3027.466046,1195.631394 3027.107022,1193.900299 3016.930786,1196.008636 3017.281727,1197.684224 3013.418325,1198.486263 3013.083414,1196.899464 3007.449871,1197.957066"/>
    <poly id="138306468" type="building" color="255,230,230" fill="1" layer="-1.00" shape="2905.058048,1254.168001 2911.802382,1243.992123 2897.120199,1234.528927 2885.711164,1252.167600 2888.038993,1259.386332 2890.942736,1258.545813 2896.760301,1249.864657 2905.058048,1254.168001"/>
    <poly id="138306469" type="building" color="255,230,230" fill="1" layer="-1.00" shape="2902.803101,1307.671544 2898.931298,1294.840258 2879.484588,1300.307237 2883.213845,1313.839415 2902.803101,1307.671544"/>
    <poly id="138306471" type="building" color="255,230,230" fill="1" layer="-1.00" shape="2932.036278,1243.098113 2930.356337,1235.553063 2948.825209,1229.570171 2957.571741,1258.493192 2954.311290,1260.435931 2932.036278,1243.098113"/>
    <poly id="138306472" type="building" color="255,230,230" fill="1" layer="-1.00" shape="2841.749911,1290.089445 2846.927354,1307.512503 2832.547694,1311.658783 2828.479602,1298.395441 2827.286866,1294.514043 2841.749911,1290.089445"/>
    <poly id="138306473" type="building" color="255,230,230" fill="1" layer="-1.00" shape="3072.383728,1250.750102 3065.693878,1230.169653 3080.379650,1225.433110 3080.773997,1226.630648 3083.066309,1226.982951 3085.100453,1228.114657 3086.433913,1229.784092 3087.158624,1231.846234 3087.140141,1233.835255 3086.579126,1235.672119 3085.681960,1236.955529 3084.574098,1237.951369 3087.185295,1245.979515 3078.645637,1248.733056 3072.383728,1250.750102"/>
    <poly id="138306474" type="building" color="255,230,230" fill="1" layer="-1.00" shape="2919.818721,1233.086019 2924.836118,1237.398925 2921.295174,1241.487909 2916.277777,1237.175006 2919.818721,1233.086019"/>
    <poly id="138306475" type="building" color="255,230,230" fill="1" layer="-1.00" shape="2965.655200,1285.331487 2964.474349,1288.250046 2955.115927,1291.197797 2947.061628,1281.303919 2939.930666,1275.526500 2944.488464,1269.508892 2965.655200,1285.331487"/>
    <poly id="138306476" type="building" color="255,230,230" fill="1" layer="-1.00" shape="2879.484588,1300.307237 2883.213845,1313.839415 2837.889250,1328.114124 2832.547694,1311.658783 2846.927354,1307.512503 2878.772067,1297.733926 2879.484588,1300.307237"/>
    <poly id="138306477" type="building" color="255,230,230" fill="1" layer="-1.00" shape="3066.159893,1184.799697 3063.935133,1174.246894 3063.512275,1172.205085 3034.121629,1178.667267 3036.841583,1191.683639 3036.971155,1192.605056 3066.407250,1185.998156 3066.159893,1184.799697"/>
    <poly id="138306478" type="building" color="255,230,230" fill="1" layer="-1.00" shape="2818.328331,1270.092576 2830.796956,1265.924985 2830.032219,1263.663123 2853.008449,1255.973717 2857.849219,1254.354298 2854.813790,1245.351134 2831.119424,1253.267286 2824.811740,1255.373763 2826.120533,1259.254428 2815.844572,1262.697073 2818.328331,1270.092576"/>
    <poly id="138306479" type="building" color="255,230,230" fill="1" layer="-1.00" shape="3072.148692,1172.528720 3063.935133,1174.246894 3066.159893,1184.799697 3069.497849,1184.100987 3070.239641,1187.651920 3075.107490,1186.632509 3072.148692,1172.528720"/>
    <poly id="138307463" type="building" color="255,230,230" fill="1" layer="-1.00" shape="1260.605416,693.301319 1276.574570,660.096192 1262.833473,653.152930 1249.319077,680.753030 1238.474062,672.968582 1249.727589,648.683333 1235.776215,641.541509 1224.720690,664.158798 1215.343796,658.431438 1229.878545,628.335647 1213.426127,619.754725 1203.793056,638.640444 1209.003828,641.506238 1202.465850,656.860476 1260.605416,693.301319"/>
    <poly id="138307465" type="building" color="255,230,230" fill="1" layer="-1.00" shape="842.689050,416.199064 828.298580,406.005473 847.150899,379.569075 807.788626,351.685348 818.583304,336.546902 872.328475,374.635518 842.689050,416.199064"/>
    <poly id="138307470" type="building" color="255,230,230" fill="1" layer="-1.00" shape="1130.442350,613.078141 1142.832139,613.352152 1143.211948,595.816127 1130.829861,595.542064 1130.442350,613.078141"/>
    <poly id="138307470#1" type="shop" color="237,199,255" fill="1" layer="-1.00" shape="1130.442350,613.078141 1142.832139,613.352152 1143.211948,595.816127 1130.829861,595.542064 1130.442350,613.078141"/>
    <poly id="138307471" type="building" color="255,230,230" fill="1" layer="-1.00" shape="1102.774207,596.893493 1103.223527,591.101580 1114.859127,591.991621 1114.409795,597.783533 1102.774207,596.893493"/>
    <poly id="138307471#1" type="shop" color="237,199,255" fill="1" layer="-1.00" shape="1102.774207,596.893493 1103.223527,591.101580 1114.859127,591.991621 1114.409795,597.783533 1102.774207,596.893493"/>
    <poly id="138307475" type="building" color="255,230,230" fill="1" layer="-1.00" shape="708.923880,349.897614 712.913180,336.570931 724.403676,339.994568 720.414280,353.310133 708.923880,349.897614"/>
    <poly id="138307478" type="building" color="255,230,230" fill="1" layer="-1.00" shape="766.711271,367.380422 779.587454,349.928055 760.762122,336.130691 744.720383,324.359354 731.844243,341.811794 766.711271,367.380422"/>
    <poly id="138307479" type="building" color="255,230,230" fill="1" layer="-1.00" shape="882.155284,409.626378 908.794400,427.950216 918.068543,414.544249 891.429471,396.231481 882.155284,409.626378"/>
    <poly id="138307480" type="building" color="255,230,230" fill="1" layer="-1.00" shape="1146.383292,621.517762 1147.740156,592.541849 1190.508490,595.227278 1187.404493,646.837134 1173.723693,638.493657 1174.225140,612.378962 1162.079584,611.592165 1160.439065,630.392052 1146.383292,621.517762"/>
    <poly id="138307481" type="building" color="255,230,230" fill="1" layer="-1.00" shape="1036.716406,500.539029 1037.236289,498.413354 1036.904758,496.248851 1035.762772,494.389698 1033.989978,493.090270 1031.858654,492.570994 1029.694288,492.907502 1027.813751,494.042147 1026.471646,495.862135 1005.502252,525.167551 1004.889201,526.071609 1031.982342,544.148527 1034.947614,539.717801 1049.100322,549.157872 1047.506480,551.523967 1058.177333,558.642557 1057.403404,559.792118 1079.413372,529.857792 1036.716406,500.539029"/>
    <poly id="138307484" type="amenity" color="237,199,199" fill="1" layer="-1.00" shape="1116.849635,608.734254 1117.516987,592.574125 1126.570486,592.636738 1125.842456,608.986156 1116.849635,608.734254"/>
    <poly id="138307484#1" type="building" color="255,230,230" fill="1" layer="-1.00" shape="1116.849635,608.734254 1117.516987,592.574125 1126.570486,592.636738 1125.842456,608.986156 1116.849635,608.734254"/>
    <poly id="138307486" type="building" color="255,230,230" fill="1" layer="-1.00" shape="1107.338493,561.507482 1108.324764,546.778602 1101.058025,546.626466 1100.735062,552.806439 1093.032693,552.301623 1092.761389,556.925683 1095.310058,560.897824 1107.338493,561.507482"/>
    <poly id="138307487" type="building" color="255,230,230" fill="1" layer="-1.00" shape="906.831189,466.863647 928.130997,436.077914 933.486785,439.764750 943.619414,425.119795 923.704272,411.418036 920.416096,416.162067 918.068543,414.544249 908.794400,427.950216 894.622650,448.433147 891.513366,446.298154 886.799593,453.096110 906.831189,466.863647"/>
    <poly id="138307487#1" type="shop" color="237,199,255" fill="1" layer="-1.00" shape="906.831189,466.863647 928.130997,436.077914 933.486785,439.764750 943.619414,425.119795 923.704272,411.418036 920.416096,416.162067 918.068543,414.544249 908.794400,427.950216 894.622650,448.433147 891.513366,446.298154 886.799593,453.096110 906.831189,466.863647"/>
    <poly id="138307491" type="building" color="255,230,230" fill="1" layer="-1.00" shape="696.824386,345.655826 702.058484,336.832017 694.243415,332.228398 689.009324,341.052213 696.824386,345.655826"/>
    <poly id="138307499" type="building" color="255,230,230" fill="1" layer="-1.00" shape="1087.004535,541.663449 1087.201369,532.784276 1106.618218,533.211916 1106.413692,542.102249 1087.004535,541.663449"/>
    <poly id="138307500" type="building" color="255,230,230" fill="1" layer="-1.00" shape="1073.388885,567.909033 1075.790310,554.237497 1092.761389,556.925683 1095.310058,560.897824 1093.950654,570.662443 1073.388885,567.909033"/>
    <poly id="138307501" type="building" color="255,230,230" fill="1" layer="-1.00" shape="1125.500604,539.432087 1121.954641,536.766515 1112.427613,536.484802 1109.580564,564.748306 1117.160873,565.520617 1122.565807,566.129479 1125.500604,539.432087"/>
    <poly id="138307502" type="building" color="255,230,230" fill="1" layer="-1.00" shape="1115.794997,579.007537 1106.675847,578.378699 1108.055934,564.702792 1109.580564,564.748306 1117.160873,565.520617 1115.794997,579.007537"/>
    <poly id="138307504" type="building" color="255,230,230" fill="1" layer="-1.00" shape="1131.562777,577.581486 1135.529869,549.010617 1146.245669,550.040107 1154.086778,556.344141 1152.497206,566.421375 1158.827634,567.746410 1159.750398,564.518083 1169.055780,566.401344 1166.635519,577.239602 1151.007335,575.186828 1150.669485,579.111316 1131.562777,577.581486"/>
    <poly id="138307536" type="building" color="255,230,230" fill="1" layer="-1.00" shape="2015.844151,954.105446 2021.843664,938.977777 2037.318691,945.078215 2031.311409,960.205919 2015.844151,954.105446"/>
    <poly id="138307537" type="amenity" color="237,199,199" fill="1" layer="-1.00" shape="1478.517345,718.097744 1435.854343,700.587260 1430.960414,713.030479 1449.057219,719.945662 1435.991416,753.542481 1445.153293,757.204889 1441.883084,765.915233 1458.116066,771.809273 1478.517345,718.097744"/>
    <poly id="138307538" type="building" color="255,230,230" fill="1" layer="-1.00" shape="1985.657301,1018.311662 1992.745925,1001.721373 2010.652252,1009.328314 2003.563590,1025.918583 1985.657301,1018.311662"/>
    <poly id="138307539" type="building" color="255,230,230" fill="1" layer="-1.00" shape="2000.255421,978.394981 2006.681830,963.486770 2025.030897,971.346460 2018.596715,986.254702 2000.255421,978.394981"/>
    <poly id="138307554" type="amenity" color="237,199,199" fill="1" layer="-1.00" shape="1412.031431,711.387511 1421.834565,686.478724 1380.953113,670.501434 1374.780426,686.164210 1386.470879,690.743331 1388.442187,685.741494 1390.218590,686.429882 1383.475200,703.563064 1396.817852,708.775847 1401.498633,696.878444 1403.569845,697.687132 1405.609637,692.507073 1407.029253,693.064464 1401.442625,707.245587 1412.031431,711.387511"/>
    <poly id="138307557" type="building" color="255,230,230" fill="1" layer="-1.00" shape="1458.691558,784.105646 1471.736093,787.542739 1467.869722,802.123690 1458.096069,799.554143 1459.802788,793.131819 1456.524194,792.264330 1458.691558,784.105646"/>
    <poly id="138463493" type="building" color="255,230,230" fill="1" layer="-1.00" shape="2718.952944,1163.052837 2708.406673,1161.697328 2708.377900,1164.486424 2715.342130,1181.764733 2724.700123,1177.516609 2718.952944,1163.052837"/>
    <poly id="138463496" type="building" color="255,230,230" fill="1" layer="-1.00" shape="2738.724029,1199.050332 2739.195337,1187.936144 2733.314057,1187.739998 2728.029848,1184.084495 2724.700123,1177.516609 2715.342130,1181.764733 2720.604572,1195.431561 2722.698784,1197.484998 2725.140232,1198.169561 2738.724029,1199.050332"/>
    <poly id="138463497" type="building" color="255,230,230" fill="1" layer="-1.00" shape="2722.711733,1150.606730 2714.941333,1152.655903 2711.433044,1155.778127 2709.586867,1158.689834 2708.406673,1161.697328 2718.952944,1163.052837 2725.304297,1160.501529 2722.711733,1150.606730"/>
    <poly id="138463498" type="tourism" color="207,245,201" fill="1" layer="-2.00" shape="2694.108206,1195.821455 2683.237357,1170.078940 2650.373942,1181.542770 2670.431314,1191.838009 2694.108206,1195.821455"/>
    <poly id="138463882" type="building" color="255,230,230" fill="1" layer="-1.00" shape="2800.692922,1189.914299 2784.248946,1195.551511 2779.709377,1182.391179 2783.546323,1181.078046 2796.153384,1176.753956 2800.692922,1189.914299"/>
    <poly id="138463883" type="building" color="255,230,230" fill="1" layer="-1.00" shape="2771.486268,1178.909760 2764.528933,1181.064847 2770.491429,1200.238452 2779.286539,1197.516203 2773.324068,1178.342590 2771.486268,1178.909760"/>
    <poly id="138465499" type="building" color="255,230,230" fill="1" layer="-1.00" shape="2812.769447,1182.438011 2822.264915,1179.122510 2827.255010,1192.580032 2826.865561,1203.204802 2822.539068,1202.954317 2820.181754,1202.113628 2818.644049,1199.967756 2812.769447,1182.438011"/>
    <poly id="138465500" type="tourism" color="207,245,201" fill="1" layer="-2.00" shape="2958.279336,1181.532547 2956.332716,1172.178042 2964.352436,1166.705356 2985.280966,1161.807124 2976.528964,1123.395137 2920.725049,1138.601749 2931.712926,1185.555221 2958.279336,1181.532547"/>
    <poly id="138465501" type="amenity" color="237,199,199" fill="1" layer="-1.00" shape="2972.325167,1135.288319 2969.266680,1123.829671 2985.603199,1119.504755 2987.219662,1125.572427 2984.431264,1126.312173 2985.865525,1131.703206 2972.325167,1135.288319"/>
    <poly id="138465501#1" type="building" color="255,230,230" fill="1" layer="-1.00" shape="2972.325167,1135.288319 2969.266680,1123.829671 2985.603199,1119.504755 2987.219662,1125.572427 2984.431264,1126.312173 2985.865525,1131.703206 2972.325167,1135.288319"/>
    <poly id="138465502" type="building" color="255,230,230" fill="1" layer="-1.00" shape="3028.929853,1166.288635 3026.527074,1153.270276 3058.128282,1146.438638 3072.800937,1156.857839 3028.929853,1166.288635"/>
    <poly id="138465503" type="building" color="255,230,230" fill="1" layer="-1.00" shape="2849.123897,1190.830985 2867.478324,1192.459747 2867.790520,1197.802269 2868.813747,1209.162584 2849.654939,1206.338880 2849.123897,1190.830985"/>
    <poly id="138465504" type="building" color="255,230,230" fill="1" layer="-1.00" shape="2998.592017,1174.690280 2997.025039,1165.411157 2956.332716,1172.178042 2958.279336,1181.532547 2998.592017,1174.690280"/>
    <poly id="138465505" type="building" color="255,230,230" fill="1" layer="-1.00" shape="2931.268049,1186.169136 2926.349649,1174.233317 2914.596598,1179.040656 2912.930982,1175.006662 2910.160607,1176.146332 2911.692604,1179.847831 2908.057901,1181.337390 2909.794266,1185.548717 2895.757098,1191.303813 2899.072798,1199.360779 2931.268049,1186.169136"/>
    <poly id="138465506" type="building" color="255,230,230" fill="1" layer="-1.00" shape="2895.445457,1202.016977 2892.134350,1191.004403 2867.790520,1197.802269 2868.813747,1209.162584 2895.445457,1202.016977"/>
    <poly id="138465507" type="amenity" color="237,199,199" fill="1" layer="-1.00" shape="2960.110281,1117.109396 2954.759710,1097.965102 2980.486735,1090.814448 2979.172979,1086.133776 3021.289505,1074.435850 3022.445079,1078.573074 3050.512517,1070.774687 3055.807399,1089.719407 3019.800248,1099.723177 3021.129931,1104.481536 2988.042428,1113.678273 2986.918481,1109.651968 2960.110281,1117.109396"/>
    <poly id="138465507#1" type="building" color="255,230,230" fill="1" layer="-1.00" shape="2960.110281,1117.109396 2954.759710,1097.965102 2980.486735,1090.814448 2979.172979,1086.133776 3021.289505,1074.435850 3022.445079,1078.573074 3050.512517,1070.774687 3055.807399,1089.719407 3019.800248,1099.723177 3021.129931,1104.481536 2988.042428,1113.678273 2986.918481,1109.651968 2960.110281,1117.109396"/>