<?xml version="1.0" encoding="UTF-8"?>

<!-- generated on Sat Dec  1 14:44:57 2018 by Eclipse SUMO duarouter Version 1.0.1
<configuration xmlns:xsi="http://www.w3.org/2001/XMLSchema-instance" xsi:noNamespaceSchemaLocation="http://sumo.dlr.de/xsd/duarouterConfiguration.xsd">

    <input>
        <net-file value="map.net.xml"/>
        <route-files value="trips.trips.xml"/>
    </input>

    <output>
        <output-file value="map.rou.xml"/>
        <alternatives-output value="map.rou.alt.xml"/>
    </output>

    <time>
        <begin value="0"/>
        <end value="100.0"/>
    </time>

    <report>
        <no-warnings value="true"/>
        <ignore-errors value="true"/>
        <no-step-log value="true"/>
    </report>

</configuration>
-->

<routes xmlns:xsi="http://www.w3.org/2001/XMLSchema-instance" xsi:noNamespaceSchemaLocation="http://sumo.dlr.de/xsd/routes_file.xsd">
    <vehicle id="0" depart="0.00">
        <route edges="-6993193 -6007551#4 -6007551#3 -4853869#3 -4853869#2 -388471843#2 388471843#2"/>
    </vehicle>
    <vehicle id="1" depart="0.25">
        <route edges="149736972#6 39726117 4698075#0 4698075#1 4698075#2 4698075#3 4698075#4 461407248#0 461407248#1 22634711#0 22634711#1 170677018#1 170677018#2 170677018#3 39560877#0 39560877#1 77767636#0 77767636#1 77767636#2 77767636#3 77767636#4 77755398#0"/>
    </vehicle>
    <vehicle id="2" depart="0.50">
        <route edges="84591039 8068335#0 -301149679#4 -301149679#3 190458059#0 190458059#1 190458059#2 190458059#3 -190458059#3"/>
    </vehicle>
    <vehicle id="3" depart="0.75">
        <route edges="-84591012#9 -4698533#4 -4698533#3 -4698533#2 -4698533#1 -4698533#0 -149736974 149736970#0 149736970#1 149736970#2 149736970#3 149736970#4 149736970#5 -8113462#3 -8113462#2 -8113462#1 -8113462#0 -180641413#1 -180641413#0 -180641412 -416322805#16 -416322805#15 -416322805#14 -416322805#13 -416322805#12 -416322805#11 -416322805#10 -416322805#9 -416322805#8 -416322805#7 32559954#0 -32559954#0"/>
    </vehicle>
    <vehicle id="4" depart="1.00">
        <route edges="323811995 -323811995 397483170#3 397483170#4 344551858 -170677021 -170677020 -4698533#9 -4698533#8 -4698533#7 -4698533#6 -4698533#5 -4698533#4 -4698533#3 -4698533#2 -4698533#1 -4698533#0 149736972#0 149736972#1 149736972#2 149736972#3 149736972#4 149736972#5 -6007543#9 -6007543#8 -6007543#7 -6007543#6 -6007543#5 -6007543#4 8108486#0 8108486#1 8108485 -6007540#2 -6007540#1 6007540#1"/>
    </vehicle>
    <vehicle id="5" depart="1.25">
        <route edges="-272118465#1 272118465#1 272118465#2 272118465#3 272118465#4 618084233#0 618084233#1 618084233#2 618084233#3 618084233#4 -170677024#5 -170677024#4 -170677024#3 -170677024#2 -170677024#1 -170677024#0 -170677023 -4698074 -461407248#1 -461407248#0 -84591012#19 -84591012#18 -84591012#17 -84591012#16 -84591012#15 -84591012#14 -84591012#13 -84591012#12 -84591012#11 -84591012#10 77754532#0"/>
    </vehicle>
    <vehicle id="6" depart="1.50">
        <route edges="344551856#0 344551856#1 37669106#0 37669106#1 37669106#2 -84590991 -84590989 -4853866 -84591012#1 -84591012#0 -84591019 -4357036#4 -4357036#3 -4357036#2 -4357036#1 -4357036#0 -4698026#3 -4698026#2 -4698026#1 -4698026#0 -15952223#1 -15952223#0 84591030#1 16243521 301149679#0 301149679#1 301149679#2 301149679#3 61509252#0 -61509252#0"/>
    </vehicle>
    <vehicle id="7" depart="1.75">
        <route edges="167467122 8108486#3 8108486#4 8108486#5 8108486#6 606942683#2 606942683#3 149736974 4698533#0 4698533#1 4698533#2 4698533#3 4698533#4 4698533#5 4698533#6 4698533#7 4698533#8 4698533#9 170677020 170677021 344551857 4698534#0 4698534#1 322315674#1 322315674#2 322315674#3 322315674#4 22658589"/>
    </vehicle>
    <vehicle id="8" depart="2.00">
        <route edges="190357779#2 -184840188#3 -184840188#2 -184840188#1 -184840188#0 -30742691#1 -30742691#0 4344104#0 4344104#1 4344104#2 4344104#3 4344104#4 4344104#5 4344104#6 4344104#7 4344104#8 4344104#9 4344104#10 4344104#11 150154696 4344105 606944439 150154692#0 150154692#1 150154692#2 150154690#0 150154690#1 4342869 47474727#0 -39726111"/>
    </vehicle>
    <vehicle id="9" depart="2.25">
        <route edges="150342298 150342301 149736762 39753283 150342296#0 150342296#1 150342296#2 150342296#3 150342296#4 150342296#5 243129119 39726118 150154689#0 150154689#1 150154689#2 150154689#3 150154689#4 150154689#5 150154689#6 150154689#7 150154689#8 149736970#0 149736970#1 149736970#2 149736970#3 149736970#4 149736970#5 149736970#6 149736970#7 149736970#8 -16243599#0 84589838#7 84589838#8 279799438"/>
    </vehicle>
    <vehicle id="10" depart="2.50">
        <route edges="195231316#0 195231316#1 -4853863#0 24831224#0 24831224#1 24831224#2 24831224#3 4854291 606942684 606942683#0 606942683#1 606942683#2 606942683#3 149736974 4698533#0 4698533#1 4698533#2 4698533#3 4698533#4 84591012#9 -84591012#9"/>
    </vehicle>
    <vehicle id="11" depart="2.75">
        <route edges="190458059#1 190458059#2 40390604 416322805#16 180641412 180641413#0 180641413#1 4854295 24831224#0 24831224#1 24831224#2 24831224#3 -191264757#1 -191264757#0 4853871 -73920101 6993189#0 6993189#1 6993189#2 6993189#3 4344104#4 13229614#0 13229614#1"/>
    </vehicle>
    <vehicle id="12" depart="3.00">
        <route edges="195231318#1 -195231318#1 -195231318#0 4853869#3 6007551#3 6007551#4 6993193 6993189#1"/>
    </vehicle>
    <vehicle id="13" depart="3.25">
        <route edges="84589838#5 84589838#6 84589838#7 84589838#8 84589838#9 295152803#0 295152803#1 295152803#2 295152803#3 295152803#4 295152803#5 295152803#6 149736972#0 149736972#1 149736972#2 149736972#3 149736972#4 149736972#5 149736972#6 39726117 4698075#0 4698075#1 4698075#2 4698075#3 4698075#4 4698188#0 4698188#1 4698188#2 4698188#3"/>
    </vehicle>
    <vehicle id="14" depart="3.50">
        <route edges="-322315674#8 -322315674#7 -322315674#6 -322315674#5 -322315674#4 -322315674#3 -322315674#2 -322315674#1 -4698534#1 -4698534#0 -344551857 -170677021 -170677020 -4698533#9 -4698533#8 -4698533#7 -4698533#6 -4698533#5 -4698533#4 -4698533#3 -4698533#2 -4698533#1 -4698533#0 -149736974 149736970#0 149736970#1 149736970#2 149736970#3 149736970#4 149736970#5 149736970#6 39742824#0 39742824#1 16243599#3 301149679#0 301149679#1 301149679#2 301149679#3 301149679#4 301149679#5"/>
    </vehicle>
    <vehicle id="15" depart="3.75">
        <route edges="33927057 -32559979#8 -32559979#7 -32559979#6 -32559979#5 416322805#6 416322805#7 416322805#8 416322805#9 416322805#10 416322805#11 416322805#12 416322805#13 416322805#14 416322805#15 416322805#16 180641412 180641413#0 180641413#1 4854295 4853863#0 4853863#1 4853863#2 4853863#3 150266114#0 150266114#1 -195231318#6 -195231318#5 33926153#0 33926153#1 190357779#0 190357779#1 190357779#2 -184840188#3 -184840188#2 -184840188#1 -184840188#0 -30742691#1 30742691#1"/>
    </vehicle>
    <vehicle id="17" depart="4.25">
        <route edges="-191264757#1 -191264757#0 -388471843#3 -388471843#2 -388471843#1 4853868#4 4853868#5 195231316#0 195231316#1 -4853863#0 -4854295 -180641413#1 -180641413#0 -180641412 -416322805#16 -416322805#15 -190458059#3"/>
    </vehicle>
    <vehicle id="18" depart="4.50">
        <route edges="39726111 47474728#0 47474728#1 47474728#2 47474729#0 47474729#1 -150154690#0 -150154692#2 -150154692#1 -150154692#0 -243129121#4 -243129121#3 -243129121#2 -243129121#1 -243129121#0 -24020043 4698075#0 4698075#1 4698075#2 4698075#3 4698075#4 -84591012#19 -84591012#18 -84591012#17 -84591012#16 -84591012#15 -84591012#14 -84591012#13 181200021 196029146#0"/>
    </vehicle>
    <vehicle id="19" depart="4.75">
        <route edges="-368284689#0 -1629774 368284687 39726120 39726121#0 39726121#1 39726121#2 39726121#3 150154689#0 150154689#1 150154689#2 150154689#3 150154689#4 150154689#5 150154689#6 150154689#7 150154689#8 -606942683#3 -606942683#2 -606942683#1 -606942683#0 -606942684 -4854291 -191264757#1 -191264757#0 -388471843#3 -388471843#2 -388471843#1 -388471843#0 194334891"/>
    </vehicle>
    <vehicle id="20" depart="5.00">
        <route edges="37669106#1 37669106#2 -84590991 -84590989 -4853866 84591012#2 -275180102 295152803#1 295152803#2 295152803#3 295152803#4 295152803#5 295152803#6 -149736974 -606942683#3 -606942683#2 -606942683#1 -606942683#0 -606942684 -4854291 -191264757#1"/>
    </vehicle>
    <vehicle id="21" depart="5.25">
        <route edges="4853869#3 -4853869#3 -4853869#2 388471843#3 4854294#0"/>
    </vehicle>
    <vehicle id="22" depart="5.50">
        <route edges="150342293#9 150342292 150342298 -461406765#1 -461406765#0 -461406766 -150211084 162961620#0 162961620#1 -162961617#5 -162961617#4 -162961617#3 -162961617#2 -162961617#1 -162961617#0 4698074 170677023 170677024#0 7659328 233211239 397483170#0 397483170#1 397483170#2 397483170#3 397483170#4 344551858 344551856#0 344551856#1 37669106#0 37669106#1 5033134#0 5033133#3 279297531"/>
    </vehicle>
    <vehicle id="23" depart="5.75">
        <route edges="33784059#0 33784059#1 -4854289#3 -4854289#2 -4854289#1 -4854289#0 -14765278#1 -14765278#0 -14765304#1 -14765304#0 150211096#0 150211096#1 5033234#1 5033234#2 -162963697 -162961617#5 -162961617#4 -162961617#3 -162961617#2 -162961617#1 -162961617#0 -461407248#1 -461407248#0 -4698075#4 -4698075#3 -4698075#2 -4698075#1 -4698075#0 24020043 243129121#0 243129121#1 243129121#2 243129121#3 243129121#4 -606944439 -4344105 -150154696 -4344104#11 -4344104#10 -4344104#9 -4344104#8 -4344104#7 32087469 -188159934#1 -188159934#0"/>
    </vehicle>
    <vehicle id="24" depart="6.00">
        <route edges="4854294#7 -4854294#7 -4854294#6 -4854294#5 -4854294#4 -4854294#3 -4854294#2 -4854294#1 -4854294#0 -388471843#3 4853869#2 195231318#0 195231317#0 195231317#1"/>
    </vehicle>
    <vehicle id="25" depart="6.25">
        <route edges="416322805#1 416322805#2 416322805#3 416322805#4 416322805#5 416322805#6 32559954#0 32559954#1 32559954#2 32559954#3 32559954#4 -8068335#1 -301149679#4 -301149679#3 -301149679#2 -301149679#1 -301149679#0 -16243599#3 -16243599#2 -16243599#1 149736970#9 149736970#10 149736970#11 149736970#12 4698026#0 4698026#1 4698026#2 4698026#3 -4698026#3"/>
    </vehicle>
    <vehicle id="26" depart="6.50">
        <route edges="264304941#1 264304941#2 -32559979#6 -32559979#5 416322805#6 416322805#7 416322805#8 416322805#9 416322805#10 416322805#11 416322805#12 416322805#13 416322805#14 416322805#15 416322805#16 180641412 180641413#0 180641413#1 8113462#0 8113462#1 8113462#2 8113462#3 8113462#4 295152803#0 295152803#1 295152803#2 295152803#3 295152803#4 295152803#5 295152803#6 149736972#0 149736972#1 149736972#2 149736972#3 149736972#4 149736972#5 149736972#6 4826368#0 4826368#1 4826368#2 4826368#3 4826369 1629607 368284689#0 368284689#1 150154695#0 -377960833#2"/>
    </vehicle>
    <vehicle id="27" depart="6.75">
        <route edges="-416322805#2 416322805#2 416322805#3 416322805#4 416322805#5 416322805#6 416322805#7 416322805#8 416322805#9 416322805#10 416322805#11 416322805#12 416322805#13 416322805#14 416322805#15 416322805#16 180641412 180641413#0 180641413#1 8113462#0 8113462#1 8113462#2 8113462#3 8113462#4 295152803#0 295152803#1 295152803#2 295152803#3 295152803#4 295152803#5 295152803#6 149736972#0 149736972#1 149736972#2 149736972#3 149736972#4 149736972#5 149736972#6 39726117 4698075#0 4698075#1 4698075#2 4698075#3 4698075#4 461407248#0 461407248#1 4698074"/>
    </vehicle>
    <vehicle id="28" depart="7.00">
        <route edges="4853869#2 195231318#0 195231318#1 195231318#2 195231318#3 195231318#4 195231318#5 195231318#6 -150266114#1 -150266114#0 -4853863#3 -4853863#2 -4853863#1 -4853863#0 -4854295 -180641413#1 -180641413#0 -180641412 -416322805#16 -416322805#15 -416322805#14 -416322805#13 -416322805#12 -416322805#11 -416322805#10 -416322805#9 -416322805#8 -416322805#7 -416322805#6 32559979#5 -32559979#5"/>
    </vehicle>
    <vehicle id="29" depart="7.25">
        <route edges="84591030#1 16243521 -16243599#3 -16243599#2 -16243599#1 -16243599#0 84589838#7 84589838#8 84589838#9 295152803#0 295152803#1 295152803#2 295152803#3 295152803#4 295152803#5 295152803#6 149736972#0 149736972#1 149736972#2 149736972#3 149736972#4 149736972#5 149736972#6 39726117 295152804#0 295152804#1 295152804#2"/>
    </vehicle>
    <vehicle id="30" depart="7.50">
        <route edges="606944439 -243129121#4 -243129121#3 -243129121#2 -243129121#1 -243129121#0 -24020043 4698075#0 4698075#1 4698075#2 4698075#3 4698075#4 461407248#0"/>
    </vehicle>
    <vehicle id="31" depart="7.75">
        <route edges="-397483170#1 397483170#1 397483170#2 397483170#3 397483170#4 344551858 -170677021 -170677020 -4698533#9 -4698533#8 -4698533#7 -4698533#6 -4698533#5 -4698533#4 -4698533#3 -4698533#2 -4698533#1 -4698533#0 -149736974 149736970#0 149736970#1 149736970#2 149736970#3 149736970#4 149736970#5 -8113462#3 -8113462#2 -8113462#1 -8113462#0 -180641413#1 -180641413#0 -180641412 -416322805#16 -416322805#15 -416322805#14 -416322805#13 -416322805#12 -416322805#11 -416322805#10 -416322805#9 -416322805#8 -416322805#7 -416322805#6 -416322805#5 -416322805#4 -416322805#3 -416322805#2 -416322805#1 -343444803#6 -343444803#5 -264302760"/>
    </vehicle>
    <vehicle id="32" depart="8.00">
        <route edges="5033234#0 5033234#1 5033234#2 -162963697 -162961617#5 -162961617#4 -162961617#3 -162961617#2 -162961617#1 -162961617#0 -461407248#1 -461407248#0 -4698075#4 -4698075#3 -4698075#2 -4698075#1 -4698075#0 24020043 243129121#0 243129121#1 243129121#2 243129121#3 243129121#4 -606944439"/>
    </vehicle>
    <vehicle id="33" depart="8.25">
        <route edges="-14763660#1 -14763660#0 84591036 84591039 8068335#0 -301149679#4 -301149679#3 -301149679#2 -301149679#1 -301149679#0 -16243599#3 -16243599#2 -16243599#1 -16243599#0 84589838#7 84589838#8 84589838#9 295152803#0 295152803#1 295152803#2 295152803#3 295152803#4 295152803#5 295152803#6 149736972#0 149736972#1 149736972#2 149736972#3 149736972#4 149736972#5 149736972#6 39726117 4698075#0 -4698075#0 24020043 243129121#0 4579203"/>
    </vehicle>
    <vehicle id="34" depart="8.50">
        <route edges="4357036#4 -4357036#4 -4357036#3 -4357036#2 -4357036#1 -4357036#0 -4698026#3 -4698026#2 -4698026#1 -4698026#0 -15952223#1 -15952223#0 84591030#1 16243521 301149679#0 301149679#1 301149679#2 301149679#3 301149679#4 301149679#5 -301149679#5"/>
    </vehicle>
    <vehicle id="35" depart="8.75">
        <route edges="-77754532#0 -84591012#9 -4698533#4 -4698533#3 -4698533#2 -4698533#1 -4698533#0 -149736974 -606942683#3 -606942683#2 -606942683#1 -606942683#0 -606942684 -4854291 181682315#0 181682315#1 181682315#2 181682315#3 6007566 4854294#4 4854294#5 4854294#6 4854294#7"/>
    </vehicle>
    <vehicle id="36" depart="9.00">
        <route edges="117343692#0 117343692#1 -243129121#2 -243129121#1 -243129121#0 243129119 39726118 150154689#0 150154689#1 150154689#2 150154689#3 150154689#4 150154689#5 150154689#6 150154689#7 150154689#8 149736970#0 149736970#1 149736970#2 149736970#3 149736970#4 149736970#5 149736970#6 39742824#0 39742824#1"/>
    </vehicle>
    <vehicle id="37" depart="9.25">
        <route edges="4357036#4 84591019 84591012#0 84591012#1 84591012#2 -275180102 295152803#1 295152803#2 295152803#3 295152803#4 295152803#5 295152803#6 -149736974 -606942683#3 -606942683#2 -606942683#1 -606942683#0 -606942684 -4854291 -191264757#1 -191264757#0 4853871 -73920101 6993189#0 6993189#1 6993189#2 6993189#3 -4344104#3 165664173#0 165664173#1"/>
    </vehicle>
    <vehicle id="38" depart="9.50">
        <route edges="39726120 39726121#0 39726121#1 39726121#2 39726121#3 150154691 4826368#0 4826368#1 4826368#2 4826368#3 4826369 1629607 368284689#0 -368284689#0"/>
    </vehicle>
    <vehicle id="39" depart="9.75">
        <route edges="193602872#5 193602872#6 -20585595#5 -20585595#4 -20585595#3 -20585595#2 -20585595#1 -20585595#0 416322805#12 416322805#13 416322805#14 416322805#15 416322805#16 180641412 180641413#0 180641413#1 8113462#0 8113462#1 8113462#2 8113462#3 8113462#4 295152803#0 295152803#1 295152803#2 295152803#3 295152803#4 295152803#5 295152803#6 149736972#0 149736972#1 149736972#2 149736972#3 149736972#4 149736972#5 149736972#6 4826368#0 4826368#1 4826368#2 4826368#3 4826369 1629607 368284689#0 368284689#1 150154695#0 150154695#1 310578755#0 310578755#1 4342870 -5033253#1 5033253#1"/>
    </vehicle>
    <vehicle id="40" depart="10.00">
        <route edges="25843529#2 416322805#10 416322805#11 416322805#12 416322805#13 416322805#14 416322805#15 416322805#16 180641412 180641413#0 180641413#1 4854295 24831224#0 24831224#1 24831224#2 24831224#3 181682315#0 181682315#1 181682315#2 181682315#3 181682315#4 181682315#5 181682315#6 181682315#7 181682315#8 151879424#0 -151879424#0"/>
    </vehicle>
    <vehicle id="41" depart="10.25">
        <route edges="-193602872#5 193602872#5 193602872#6 -20585595#5 -20585595#4 -20585595#3 -20585595#2 -20585595#1 -20585595#0 416322805#12 416322805#13 416322805#14 416322805#15 416322805#16 180641412 180641413#0 180641413#1 8113462#0 8113462#1 8113462#2 8113462#3 8113462#4 295152803#0 295152803#1 295152803#2 295152803#3 295152803#4 295152803#5 295152803#6 4698533#0 4698533#1 4698533#2 4698533#3 4698533#4 4698533#5 4698533#6 4698533#7 4698533#8 4698533#9 170677020 170677021 344551857 4698534#0 4698534#1 -322315674#0"/>
    </vehicle>
    <vehicle id="42" depart="10.50">
        <route edges="-4854294#0 191264757#0 191264757#1 4854291 606942684 606942683#0 606942683#1 606942683#2 606942683#3 149736974 4698533#0 4698533#1 4698533#2 4698533#3 4698533#4 4698533#5 4698533#6 4698533#7 4698533#8 4698533#9 170677020 170677021 344551857 4698534#0 4698534#1 322315674#1 5761300#0 5761300#1"/>
    </vehicle>
    <vehicle id="43" depart="10.75">
        <route edges="5033234#1 5033234#2 -162963697 -162961617#5 -162961617#4 -162961617#3 -162961617#2 -162961617#1 -162961617#0 -461407248#1 -461407248#0 -4698075#4 -4698075#3 -4698075#2 -4698075#1 -4698075#0 24020043 243129121#0 243129121#1 243129121#2 243129121#3 243129121#4 -606944439 -4344105 -150154696 -4344104#11 -188159970#1 -188159970#0 -13229614#2 -13229614#1"/>
    </vehicle>
    <vehicle id="44" depart="11.00">
        <route edges="4698533#3 -4698533#3 -4698533#2 -4698533#1 -4698533#0 -149736974 149736970#0 149736970#1 149736970#2 149736970#3 149736970#4 149736970#5 149736970#6 39742824#0 39742824#1 16243599#3 301149679#0 301149679#1 301149679#2 301149679#3 301149679#4 -8068335#0 -84591039 -84591036 14763660#0 14763660#1 -14763660#1"/>
    </vehicle>
    <vehicle id="45" depart="11.25">
        <route edges="37669178#0 -37669178#0 7339891#1 -27002290#2 -27002290#1 -170677024#2 -170677024#1 -170677024#0 -170677023 -4698074 -461407248#1 -461407248#0 -4698075#4 -4698075#3 -4698075#2 -4698075#1 -4698075#0 24020043 243129121#0 4579203 66452130#0 66452130#1 4579210 293246120#0"/>
    </vehicle>
    <vehicle id="46" depart="11.50">
        <route edges="-167536769#0 -37669107#2 -37669107#1 -37669107#0 -170677022 -22634712 170677018#5 170677018#0 170677018#1 170677018#2 170677018#3 39560877#0 39560877#1 77767636#0 77767636#1 77767636#2 77767636#3 77767636#4 77767636#5 -22634713#1 -22634713#0 -6007543#9 150154689#3 150154689#4"/>
    </vehicle>
    <vehicle id="47" depart="11.75">
        <route edges="190458059#0 190458059#1 190458059#2 40390604 416322805#16 180641412 180641413#0 180641413#1 8113462#0 8113462#1 8113462#2 8113462#3 8113462#4 295152803#0 275180102 -84591012#2 4853866 84590989 84590991 279297479"/>
    </vehicle>
    <vehicle id="48" depart="12.00">
        <route edges="39753287#2 39753283 150342296#0 150342296#1 150342296#2 150342296#3 150342296#4 150342296#5 243129119 39726118 150154689#0 150154689#1 150154689#2 150154689#3 150154689#4 150154689#5 150154689#6 150154689#7 150154689#8 149736970#0 149736970#1 149736970#2 149736970#3 149736970#4 149736970#5 -8113462#3 -8113462#2 -8113462#1 -8113462#0 -180641413#1 -180641413#0 -180641412 -416322805#16 -416322805#15 -416322805#14 -416322805#13 -416322805#12 -416322805#11 -416322805#10 -416322805#9 -416322805#8 -416322805#7 -416322805#6 -416322805#5 -416322805#4 33926870#0 33926870#1 33926870#2 33926870#3 33926870#4"/>
    </vehicle>
    <vehicle id="49" depart="12.25">
        <route edges="-4853869#3 -4853869#2 388471843#3 4854294#0 4854294#1 4854294#2 4854294#3 4854294#4 4854294#5 4854294#6 4854294#7 4854294#8 150154696 4344105 606944439 150154692#0 -601393222#1"/>
    </vehicle>
    <vehicle id="50" depart="12.50">
        <route edges="37669106#0 37669106#1 37669106#2 -84590991 -84590989 -4853866 -84591012#1 -84591012#0 -84591019 -4357036#4 -4357036#3 -4357036#2 -4357036#1 -4357036#0 -4698026#3 -4698026#2 -4698026#1 -4698026#0 -15952223#1 -15952223#0 84591030#1 16243521 301149679#0 301149679#1 301149679#2 301149679#3 301149679#4 8068335#1 -32559954#4 -32559954#3 -32559954#2 -32559954#1 -32559954#0 -416322805#6 -416322805#5 -416322805#4 -416322805#3 -416322805#2 416322805#2"/>
    </vehicle>
    <vehicle id="51" depart="12.75">
        <route edges="32559979#4 416322805#6 416322805#7 416322805#8 416322805#9 416322805#10 416322805#11 416322805#12 416322805#13 416322805#14 416322805#15 416322805#16 180641412 180641413#0 180641413#1 4854295 24831224#0 24831224#1 24831224#2 24831224#3 -191264757#1 191264757#1"/>
    </vehicle>
    <vehicle id="52" depart="13.00">
        <route edges="167143477#0 84591012#6 84591012#7 84591012#8 -4698533#4 -4698533#3 -4698533#2 -4698533#1 -4698533#0 149736972#0 149736972#1 149736972#2 149736972#3 149736972#4 149736972#5 149736972#6 4826368#0 4826368#1 4826368#2 4826368#3 4826369 1629607 368284689#0 368284689#1 150154695#0 150154695#1 310578755#0 310578755#1 310578755#2 310578755#3 -310578755#3"/>
    </vehicle>
    <vehicle id="53" depart="13.25">
        <route edges="-32559979#5 416322805#6 416322805#7 416322805#8 416322805#9 416322805#10 416322805#11 416322805#12 416322805#13 416322805#14 416322805#15 416322805#16 180641412 180641413#0 180641413#1 8113462#0 8113462#1 8113462#2 8113462#3 8113462#4 295152803#0 295152803#1 295152803#2 295152803#3 295152803#4 295152803#5 295152803#6 4698533#0 4698533#1 4698533#2 4698533#3 4698533#4 4698533#5 4698533#6 4698533#7 4698533#8 4698533#9 170677020 170677021 344551857 4698534#0 22634433 -22634432#0 -397483170#3 -397483170#2 40388634#0"/>
    </vehicle>
    <vehicle id="54" depart="13.50">
        <route edges="84589838#8 84589838#9 295152803#0 295152803#1 295152803#2 295152803#3 295152803#4 295152803#5 295152803#6 -149736974 149736970#0 149736970#1 149736970#2 149736970#3 149736970#4 -115720790 115720791 115720792 -115720792"/>
    </vehicle>
    <vehicle id="55" depart="13.75">
        <route edges="-4853865#1 4853865#1 388471843#0 388471843#1 388471843#2 388471843#3 4854294#0 4854294#1 4854294#2 4854294#3 4854294#4 4854294#5 4854294#6 4854294#7 4854294#8 -4344104#11 4344104#11"/>
    </vehicle>
    <vehicle id="56" depart="14.00">
        <route edges="-4344104#5 -4344104#4 -4344104#3 -4344104#2 -4344104#1 -4344104#0 30742691#0 30742691#1 -4853869#5 -4853869#4 -4853869#3 -4853869#2 -4853869#1 133856524#2 191264757#1 -191264757#1"/>
    </vehicle>
    <vehicle id="58" depart="14.50">
        <route edges="-32559979#6 -32559979#5 416322805#6 416322805#7 416322805#8 416322805#9 416322805#10 416322805#11 416322805#12 416322805#13 416322805#14 416322805#15 416322805#16 180641412 180641413#0 180641413#1 8113462#0 8113462#1 8113462#2 8113462#3 8113462#4 295152803#0 295152803#1 295152803#2 295152803#3 295152803#4 295152803#5 295152803#6 4698533#0 4698533#1 4698533#2 4698533#3 -143971214"/>
    </vehicle>
    <vehicle id="59" depart="14.75">
        <route edges="5033133#0 5033137#1 -344551856#1 -344551856#0 -170677021 -170677020 -4698533#9 -4698533#8 -4698533#7 -4698533#6 -4698533#5 -4698533#4 -4698533#3 -4698533#2 -4698533#1 -4698533#0 149736972#0 149736972#1 149736972#2 149736972#3 149736972#4 149736972#5 149736972#6 4826368#0 4826368#1 4705120#0 117343692#1"/>
    </vehicle>
    <vehicle id="60" depart="15.00">
        <route edges="159192411#1 159192411#2 159192411#3 618084233#4 -170677024#5 -170677024#4 -170677024#3 -170677024#2 -170677024#1 -170677024#0 -170677023 -4698074 -461407248#1 -461407248#0 -4698075#4 -4698075#3 -4698075#2 -4698075#1 -4698075#0 24020043 243129119 39726118 150154689#0 150154689#1 150154689#2 150154689#3 150154689#4 150154689#5 150154689#6 150154689#7 150154689#8 149736970#0 149736970#1 149736970#2 149736970#3 149736970#4 149736970#5 -8113462#3 -8113462#2 -8113462#1 -8113462#0 -180641413#1 -180641413#0 -180641412 -416322805#16 -416322805#15 -416322805#14 -416322805#13 -416322805#12"/>
    </vehicle>
    <vehicle id="62" depart="15.50">
        <route edges="8068335#2 8068335#3 416322805#9 416322805#10 416322805#11 416322805#12 416322805#13 416322805#14 416322805#15 416322805#16 180641412 180641413#0 180641413#1 4854295 24831224#0"/>
    </vehicle>
    <vehicle id="64" depart="16.00">
        <route edges="4698533#9 -4698533#9 -4698533#8 -4698533#7 -4698533#6 -4698533#5 -4698533#4 -4698533#3 -4698533#2 -4698533#1 -4698533#0 -149736974 149736970#0 149736970#1 149736970#2 149736970#3 149736970#4 149736970#5 -8113462#3 -8113462#2 -8113462#1 -8113462#0 -180641413#1 -180641413#0 -180641412 -416322805#16 -416322805#15 -416322805#14 -416322805#13 -416322805#12 20585595#0 20585595#1 20585595#2 20585595#3 20585595#4 20585595#5"/>
    </vehicle>
    <vehicle id="65" depart="16.25">
        <route edges="40390594#0 40390594#1 20345485#1 20345485#2 -20345557#3 -20345557#2 -20345557#1 -20345557#0 8113462#0 8113462#1 8113462#2 8113462#3 8113462#4 295152803#0 295152803#1 295152803#2 295152803#3 295152803#4 295152803#5 295152803#6 149736972#0 149736972#1 149736972#2 149736972#3 149736972#4 149736972#5 149736972#6 4826368#0 4826368#1 4826368#2 4826368#3 4826369 1629607 368284689#0"/>
    </vehicle>
    <vehicle id="66" depart="16.50">
        <route edges="5033137#1 37669106#0 37669106#1 37669106#2 -84590991 -84590989 -4853866 -84591012#1 -84591012#0 -84591019 -4357036#4"/>
    </vehicle>
    <vehicle id="67" depart="16.75">
        <route edges="170677024#3 -170677024#3 -170677024#2 -170677024#1 -170677024#0 -170677023 -4698074 -461407248#1 -461407248#0 -4698075#4 -4698075#3 -4698075#2 -4698075#1 -4698075#0 24020043 243129121#0 243129121#1 243129121#2 243129121#3 243129121#4 150154692#0 -601393222#1"/>
    </vehicle>
    <vehicle id="68" depart="17.00">
        <route edges="167299074#0 167299074#1 -20585595#4 -20585595#3 -20585595#2 -20585595#1 -20585595#0 416322805#12 416322805#13 416322805#14 416322805#15 416322805#16 180641412 180641413#0 180641413#1 8113462#0 8113462#1 8113462#2 8113462#3 8113462#4 295152803#0 295152803#1 295152803#2 295152803#3 295152803#4 295152803#5 295152803#6 -149736974 149736970#0 149736970#1 149736970#2 149736970#3 149736970#4 -115720790 115720791 115720792"/>
    </vehicle>
    <vehicle id="69" depart="17.25">
        <route edges="-191264757#0 191264757#0 191264757#1 4854291 606942684 606942683#0 606942683#1 606942683#2 606942683#3 149736974 149736972#0 149736972#1 149736972#2 149736972#3 149736972#4 149736972#5 -6007543#9 -6007543#8 -6007543#7 -6007543#6 -6007543#5 -6007543#4 8108486#0 496779031#0 496779031#1"/>
    </vehicle>
    <vehicle id="70" depart="17.50">
        <route edges="-20345688#2 -20345688#1 -20345688#0 -84591012#0 -84591019 -4357036#4 -4357036#3 -4357036#2 -4357036#1 -4357036#0 -4698026#3 -4698026#2 -4698026#1 -4698026#0 -15952223#1 -15952223#0 84591030#1 16243521 301149679#0 301149679#1 301149679#2 301149679#3 301149679#4 8068335#1 8068335#2 -8068335#2"/>
    </vehicle>
    <vehicle id="71" depart="17.75">
        <route edges="-461407248#0 461407248#0 461407248#1 22634711#0 22634711#1 170677018#1 170677018#2 170677018#3 39560877#0 39560877#1 77767636#0 77767636#1 77767636#2 77767636#3 77756406"/>
    </vehicle>
    <vehicle id="72" depart="18.00">
        <route edges="149736970#6 149736970#7 149736970#8 -16243599#0 84589838#7 84589838#8 84589838#9 295152803#0 295152803#1 295152803#2 295152803#3 295152803#4 295152803#5 295152803#6 149736972#0 149736972#1 149736972#2 149736972#3 149736972#4 149736972#5 149736972#6 39726117 4698075#0 4698075#1 4698075#2 4698075#3 4698075#4 4698188#0 -4698188#0"/>
    </vehicle>
    <vehicle id="73" depart="18.25">
        <route edges="-33926981#1 33926981#1 -20585595#0 416322805#12 416322805#13 416322805#14 416322805#15 416322805#16 180641412 180641413#0 180641413#1 8113462#0 8113462#1 8113462#2 8113462#3 8113462#4 295152803#0 295152803#1 295152803#2 295152803#3 295152803#4 295152803#5 295152803#6 4698533#0 4698533#1 4698533#2 4698533#3 4698533#4 4698533#5 -4698533#5"/>
    </vehicle>
    <vehicle id="74" depart="18.50">
        <route edges="-243129121#3 -243129121#2 -243129121#1 -243129121#0 243129119 39726118 150154689#0 150154689#1 150154689#2 150154689#3 150154689#4 150154689#5 150154689#6 150154689#7 150154689#8 149736970#0 149736970#1 149736970#2 149736970#3 149736970#4 149736970#5 -8113462#3 -8113462#2 -8113462#1 -8113462#0 -180641413#1 -180641413#0 -180641412 -416322805#16 -416322805#15 -416322805#14 -416322805#13 -416322805#12 -416322805#11 -416322805#10 -25843529#2"/>
    </vehicle>
    <vehicle id="75" depart="18.75">
        <route edges="222222349#1 -279297478#0 -84590991 -84590989 -4853866 84591012#2 -275180102 295152803#1 295152803#2 295152803#3 295152803#4 295152803#5 295152803#6 -149736974 149736970#0 149736970#1 149736970#2 149736970#3 149736970#4 149736970#5 149736970#6"/>
    </vehicle>
    <vehicle id="77" depart="19.25">
        <route edges="167536769#0 -167536769#0 -37669107#2 -37669107#1 -37669107#0 -170677022 -22634712 170677018#5 170677018#0 170677018#1 170677018#2 170677018#3 39560877#0 39560877#1 77767636#0 77767636#1 77767636#2 77767636#3 77767636#4 77767636#5 -22634713#1 -22634713#0 -6007543#9 -6007543#8 -6007543#7 -6007543#6 -6007543#5 -6007543#4 8108486#0 8108486#1 8108485 167143815#0 167143815#1"/>
    </vehicle>
    <vehicle id="78" depart="19.50">