<?xml version="1.0" encoding="UTF-8"?>
<!-- generated on 2018-12-01 14:44:57.160198 by $Id$
  options: -n map.net.xml -r map.rou.xml -e 100 -l <doubleminus>period 0.25
-->
<routes xmlns:xsi="http://www.w3.org/2001/XMLSchema-instance" xsi:noNamespaceSchemaLocation="http://sumo.dlr.de/xsd/routes_file.xsd">
    <trip id="0" depart="0.00" from="-6993193" to="388471843#2"/>
    <trip id="1" depart="0.25" from="149736972#6" to="77755398#0"/>
    <trip id="2" depart="0.50" from="84591039" to="-190458059#3"/>
    <trip id="3" depart="0.75" from="-84591012#9" to="-32559954#0"/>
    <trip id="4" depart="1.00" from="323811995" to="6007540#1"/>
    <trip id="5" depart="1.25" from="-272118465#1" to="77754532#0"/>
    <trip id="6" depart="1.50" from="344551856#0" to="-61509252#0"/>
    <trip id="7" depart="1.75" from="167467122" to="22658589"/>
    <trip id="8" depart="2.00" from="190357779#2" to="-39726111"/>
    <trip id="9" depart="2.25" from="150342298" to="279799438"/>
    <trip id="10" depart="2.50" from="195231316#0" to="-84591012#9"/>
    <trip id="11" depart="2.75" from="190458059#1" to="13229614#1"/>
    <trip id="12" depart="3.00" from="195231318#1" to="6993189#1"/>
    <trip id="13" depart="3.25" from="84589838#5" to="4698188#3"/>
    <trip id="14" depart="3.50" from="-322315674#8" to="301149679#5"/>
    <trip id="15" depart="3.75" from="33927057" to="30742691#1"/>
    <trip id="16" depart="4.00" from="-193602921" to="33926925"/>
    <trip id="17" depart="4.25" from="-191264757#1" to="-190458059#3"/>
    <trip id="18" depart="4.50" from="39726111" to="196029146#0"/>
    <trip id="19" depart="4.75" from="-368284689#0" to="194334891"/>
    <trip id="20" depart="5.00" from="37669106#1" to="-191264757#1"/>
    <trip id="21" depart="5.25" from="4853869#3" to="4854294#0"/>
    <trip id="22" depart="5.50" from="150342293#9" to="279297531"/>
    <trip id="23" depart="5.75" from="33784059#0" to="-188159934#0"/>
    <trip id="24" depart="6.00" from="4854294#7" to="195231317#1"/>
    <trip id="25" depart="6.25" from="416322805#1" to="-4698026#3"/>
    <trip id="26" depart="6.50" from="264304941#1" to="-377960833#2"/>
    <trip id="27" depart="6.75" from="-416322805#2" to="4698074"/>
    <trip id="28" depart="7.00" from="4853869#2" to="-32559979#5"/>
    <trip id="29" depart="7.25" from="84591030#1" to="295152804#2"/>
    <trip id="30" depart="7.50" from="606944439" to="461407248#0"/>
    <trip id="31" depart="7.75" from="-397483170#1" to="-264302760"/>
    <trip id="32" depart="8.00" from="5033234#0" to="-606944439"/>
    <trip id="33" depart="8.25" from="-14763660#1" to="4579203"/>
    <trip id="34" depart="8.50" from="4357036#4" to="-301149679#5"/>
    <trip id="35" depart="8.75" from="-77754532#0" to="4854294#7"/>
    <trip id="36" depart="9.00" from="117343692#0" to="39742824#1"/>
    <trip id="37" depart="9.25" from="4357036#4" to="165664173#1"/>
    <trip id="38" depart="9.50" from="39726120" to="-368284689#0"/>
    <trip id="39" depart="9.75" from="193602872#5" to="5033253#1"/>
    <trip id="40" depart="10.00" from="25843529#2" to="-151879424#0"/>
    <trip id="41" depart="10.25" from="-193602872#5" to="-322315674#0"/>
    <trip id="42" depart="10.50" from="-4854294#0" to="5761300#1"/>
    <trip id="43" depart="10.75" from="5033234#1" to="-13229614#1"/>
    <trip id="44" depart="11.00" from="4698533#3" to="-14763660#1"/>
    <trip id="45" depart="11.25" from="37669178#0" to="293246120#0"/>
    <trip id="46" depart="11.50" from="-167536769#0" to="150154689#4"/>
    <trip id="47" depart="11.75" from="190458059#0" to="279297479"/>
    <trip id="48" depart="12.00" from="39753287#2" to="33926870#4"/>
    <trip id="49" depart="12.25" from="-4853869#3" to="-601393222#1"/>
    <trip id="50" depart="12.50" from="37669106#0" to="416322805#2"/>
    <trip id="51" depart="12.75" from="32559979#4" to="191264757#1"/>
    <trip id="52" depart="13.00" from="167143477#0" to="-310578755#3"/>
    <trip id="53" depart="13.25" from="-32559979#5" to="40388634#0"/>
    <trip id="54" depart="13.50" from="84589838#8" to="-115720792"/>
    <trip id="55" depart="13.75" from="-4853865#1" to="4344104#11"/>
    <trip id="56" depart="14.00" from="-4344104#5" to="-191264757#1"/>
    <trip id="57" depart="14.25" from="77767637" to="180337613"/>
    <trip id="58" depart="14.50" from="-32559979#6" to="-143971214"/>
    <trip id="59" depart="14.75" from="5033133#0" to="117343692#1"/>
    <trip id="60" depart="15.00" from="159192411#1" to="-416322805#12"/>
    <trip id="61" depart="15.25" from="288306805#0" to="295152803#5"/>
    <trip id="62" depart="15.50" from="8068335#2" to="24831224#0"/>
    <trip id="63" depart="15.75" from="356042824" to="-190458059#0"/>
    <trip id="64" depart="16.00" from="4698533#9" to="20585595#5"/>
    <trip id="65" depart="16.25" from="40390594#0" to="368284689#0"/>
    <trip id="66" depart="16.50" from="5033137#1" to="-4357036#4"/>
    <trip id="67" depart="16.75" from="170677024#3" to="-601393222#1"/>
    <trip id="68" depart="17.00" from="167299074#0" to="115720792"/>
    <trip id="69" depart="17.25" from="-191264757#0" to="496779031#1"/>
    <trip id="70" depart="17.50" from="-20345688#2" to="-8068335#2"/>
    <trip id="71" depart="17.75" from="-461407248#0" to="77756406"/>
    <trip id="72" depart="18.00" from="149736970#6" to="-4698188#0"/>
    <trip id="73" depart="18.25" from="-33926981#1" to="-4698533#5"/>
    <trip id="74" depart="18.50" from="-243129121#3" to="-25843529#2"/>
    <trip id="75" depart="18.75" from="222222349#1" to="149736970#6"/>
    <trip id="76" depart="19.00" from="-143971218#1" to="193602921"/>
    <trip id="77" depart="19.25" from="167536769#0" to="167143815#1"/>
    <trip id="78" depart="19.50" from="-84591012#19" to="40388636#4"/>
    <trip id="79" depart="19.75" from="420243390" to="-32559979#2"/>
    <trip id="80" depart="20.00" from="195231317#2" to="397483170#0"/>
    <trip id="81" depart="20.25" from="-264302761" to="-32559979#3"/>
    <trip id="82" depart="20.50" from="-4342870" to="37669107#1"/>
    <trip id="83" depart="20.75" from="20585595#5" to="-4579203"/>
    <trip id="84" depart="21.00" from="-606944439" to="-8068335#0"/>
    <trip id="85" depart="21.25" from="195231315" to="-416322805#4"/>
    <trip id="86" depart="21.50" from="-4853869#5" to="-20585595#4"/>
    <trip id="87" depart="21.75" from="4854289#1" to="496779031#0"/>
    <trip id="88" depart="22.00" from="195231317#2" to="-117343692#1"/>
    <trip id="89" depart="22.25" from="295152804#4" to="275180102"/>
    <trip id="90" depart="22.50" from="-4344104#2" to="-416322805#0"/>
    <trip id="91" depart="22.75" from="167536769#3" to="66478404#1"/>
    <trip id="92" depart="23.00" from="-344551856#1" to="-39726111"/>
    <trip id="93" depart="23.25" from="-22658589" to="150342296#2"/>
    <trip id="94" depart="23.50" from="159192411#1" to="-343444803#4"/>
    <trip id="95" depart="23.75" from="4698188#2" to="-167536769#2"/>
    <trip id="96" depart="24.00" from="14763660#2" to="20345557#5"/>
    <trip id="97" depart="24.25" from="-195231318#0" to="-32560057#0"/>
    <trip id="98" depart="24.50" from="5761300#0" to="-5033137#0"/>
    <trip id="99" depart="24.75" from="47474729#1" to="-170677024#2"/>
    <trip id="100" depart="25.00" from="-4698533#8" to="264302761"/>
    <trip id="101" depart="25.25" from="243129121#3" to="-189093006"/>
    <trip id="102" depart="25.50" from="4698026#2" to="305353582#0"/>
    <trip id="103" depart="25.75" from="-195231317#1" to="377960833#1"/>
    <trip id="104" depart="26.00" from="6007570#1" to="8068335#0"/>
    <trip id="105" depart="26.25" from="-4344104#2" to="4854292#1"/>
    <trip id="106" depart="26.50" from="149736970#1" to="288306805#0"/>
    <trip id="107" depart="26.75" from="181682315#3" to="143971214"/>
    <trip id="108" depart="27.00" from="-496779031#1" to="-180337613"/>
    <trip id="109" depart="27.25" from="461404503#5" to="-84591012#5"/>
    <trip id="110" depart="27.50" from="6007543#2" to="4853871"/>
    <trip id="111" depart="27.75" from="77767636#3" to="-322315674#1"/>
    <trip id="112" depart="28.00" from="-22658589" to="-5033133#0"/>
    <trip id="113" depart="28.25" from="16243599#3" to="-84591012#8"/>
    <trip id="114" depart="28.50" from="-167299074#1" to="322315674#8"/>
    <trip id="115" depart="28.75" from="344551856#1" to="-193602872#1"/>
    <trip id="116" depart="29.00" from="461406765#1" to="37669106#2"/>
    <trip id="117" depart="29.25" from="448758335#0" to="5033253#2"/>
    <trip id="118" depart="29.50" from="188159970#1" to="180337613"/>
    <trip id="119" depart="29.75" from="4698533#9" to="-343444803#6"/>
    <trip id="120" depart="30.00" from="6007551#4" to="-353946220"/>
    <trip id="121" depart="30.25" from="66478404#3" to="279297479"/>
    <trip id="122" depart="30.50" from="33926594" to="-6007551#0"/>
    <trip id="123" depart="30.75" from="188159959#2" to="-279297479"/>
    <trip id="124" depart="31.00" from="39726111" to="368284687"/>
    <trip id="125" depart="31.25" from="-4698026#2" to="606942683#0"/>
    <trip id="126" depart="31.50" from="-301149679#5" to="4854294#6"/>
    <trip id="127" depart="31.75" from="40390604" to="-4853868#2"/>
    <trip id="128" depart="32.00" from="323811995" to="151879425#0"/>
    <trip id="129" depart="32.25" from="5033253#2" to="5033234#1"/>
    <trip id="130" depart="32.50" from="143970377#4" to="39726121#1"/>
    <trip id="131" depart="32.75" from="33927068" to="150154692#2"/>
    <trip id="132" depart="33.00" from="233211239" to="-4698188#2"/>
    <trip id="133" depart="33.25" from="25843529#0" to="416322805#3"/>
    <trip id="134" depart="33.50" from="-22634433" to="416322805#14"/>
    <trip id="135" depart="33.75" from="159192411#0" to="149736970#10"/>
    <trip id="136" depart="34.00" from="295152803#0" to="-188159966"/>
    <trip id="137" depart="34.25" from="4357036#4" to="368284688"/>
    <trip id="138" depart="34.50" from="8113462#3" to="-275180102"/>
    <trip id="139" depart="34.75" from="-32559979#2" to="-4854319#0"/>
    <trip id="140" depart="35.00" from="116954881#0" to="-343444803#2"/>
    <trip id="141" depart="35.25" from="288306805#0" to="-184817880#1"/>
    <trip id="142" depart="35.50" from="-4344105" to="39753287#1"/>
    <trip id="143" depart="35.75" from="461407248#1" to="149736970#10"/>
    <trip id="144" depart="36.00" from="-4854290#1" to="24955336"/>
    <trip id="145" depart="36.25" from="5033234#0" to="-601393222#1"/>
    <trip id="146" depart="36.50" from="-397483170#3" to="149736970#6"/>
    <trip id="147" depart="36.75" from="7339891#0" to="150154692#0"/>
    <trip id="148" depart="37.00" from="416322805#8" to="188159959#4"/>
    <trip id="149" depart="37.25" from="150266114#1" to="20585595#5"/>
    <trip id="150" depart="37.50" from="461407248#1" to="-4698075#0"/>
    <trip id="151" depart="37.75" from="149736970#14" to="322315674#12"/>
    <trip id="152" depart="38.00" from="150342293#9" to="-162961617#2"/>
    <trip id="153" depart="38.25" from="40390604" to="196029146#1"/>
    <trip id="154" depart="38.50" from="4853863#1" to="77767644"/>
    <trip id="155" depart="38.75" from="39726121#2" to="6007553#0"/>
    <trip id="156" depart="39.00" from="150342293#0" to="-416322805#9"/>
    <trip id="157" depart="39.25" from="243129121#2" to="-523276970#1"/>
    <trip id="158" depart="39.50" from="416322805#0" to="34511645"/>
    <trip id="159" depart="39.75" from="8113462#3" to="4853863#1"/>
    <trip id="160" depart="40.00" from="-5033136#0" to="162961617#1"/>
    <trip id="161" depart="40.25" from="196029146#1" to="377960833#1"/>
    <trip id="162" depart="40.50" from="-310578755#2" to="-24955336"/>
    <trip id="163" depart="40.75" from="17255346" to="116954881#0"/>
    <trip id="164" depart="41.00" from="40388762" to="4344104#2"/>
    <trip id="165" depart="41.25" from="181683852" to="20345583"/>
    <trip id="166" depart="41.50" from="150342296#5" to="-4853869#4"/>
    <trip id="167" depart="41.75" from="8068335#3" to="-4853868#4"/>
    <trip id="168" depart="42.00" from="-190458059#0" to="4705120#0"/>
    <trip id="169" depart="42.25" from="181682315#0" to="-5033133#2"/>
    <trip id="170" depart="42.50" from="279297477" to="-207822169"/>
    <trip id="171" depart="42.75" from="368284689#1" to="16315245#0"/>
    <trip id="172" depart="43.00" from="162961619#6" to="-279297476"/>
    <trip id="173" depart="43.25" from="-192785370" to="322315674#12"/>
    <trip id="174" depart="43.50" from="606944439" to="-356042824"/>
    <trip id="175" depart="43.75" from="-4698075#3" to="-5033133#4"/>
    <trip id="176" depart="44.00" from="301149679#3" to="-33927068"/>
    <trip id="177" depart="44.25" from="22634711#0" to="150154696"/>
    <trip id="178" depart="44.50" from="601393222#0" to="4344104#11"/>
    <trip id="179" depart="44.75" from="84589838#9" to="-4853863#1"/>
    <trip id="180" depart="45.00" from="309400830" to="16315245#1"/>
    <trip id="181" depart="45.25" from="-184840188#0" to="-207822169"/>
    <trip id="182" depart="45.50" from="461407248#0" to="-275182204#0"/>
    <trip id="183" depart="45.75" from="368284687" to="4854292#0"/>
    <trip id="184" depart="46.00" from="8068335#2" to="-32560087#1"/>
    <trip id="185" depart="46.25" from="4826368#2" to="4344104#10"/>
    <trip id="186" depart="46.50" from="149736972#6" to="40390604"/>
    <trip id="187" depart="46.75" from="33926981#1" to="22634433"/>
    <trip id="188" depart="47.00" from="-188159959#0" to="167536769#1"/>
    <trip id="189" depart="47.25" from="167536769#3" to="-115720790"/>
    <trip id="190" depart="47.50" from="-16243754#0" to="-188159934#0"/>
    <trip id="191" depart="47.75" from="461407248#1" to="461404503#5"/>
    <trip id="192" depart="48.00" from="7339891#0" to="84589838#6"/>
    <trip id="193" depart="48.25" from="39726120" to="-30742691#0"/>
    <trip id="194" depart="48.50" from="-4698188#2" to="523276970#1"/>
    <trip id="195" depart="48.75" from="-4344104#2" to="344551856#0"/>
    <trip id="196" depart="49.00" from="-32559979#6" to="162961619#2"/>
    <trip id="197" depart="49.25" from="-22634433" to="610188547#1"/>
    <trip id="198" depart="49.50" from="388471843#2" to="-14763660#1"/>
    <trip id="199" depart="49.75" from="-22634433" to="-448758335#0"/>
    <trip id="200" depart="50.00" from="22634432#0" to="24831224#0"/>
    <trip id="201" depart="50.25" from="-84591012#3" to="4853868#0"/>
    <trip id="202" depart="50.50" from="-165664173#1" to="195231318#0"/>
    <trip id="203" depart="50.75" from="77767637" to="-448758335#0"/>
    <trip id="204" depart="51.00" from="167536773#0" to="-33926981#0"/>
    <trip id="205" depart="51.25" from="301149679#5" to="-167536769#0"/>
    <trip id="206" depart="51.50" from="-167536769#3" to="-461407248#1"/>
    <trip id="207" depart="51.75" from="-606944439" to="461404503#1"/>
    <trip id="208" depart="52.00" from="24781805" to="66452130#3"/>
    <trip id="209" depart="52.25" from="-4344104#11" to="190458059#3"/>
    <trip id="210" depart="52.50" from="8108485" to="149736970#13"/>
    <trip id="211" depart="52.75" from="188159959#3" to="6993189#0"/>
    <trip id="212" depart="53.00" from="279297477" to="461404503#4"/>
    <trip id="213" depart="53.25" from="377960833#1" to="181682315#7"/>
    <trip id="214" depart="53.50" from="184840188#2" to="-4854294#4"/>
    <trip id="215" depart="53.75" from="4826368#1" to="84591012#8"/>
    <trip id="216" depart="54.00" from="-62045202#0" to="-322315674#8"/>
    <trip id="217" depart="54.25" from="-188159959#4" to="193602921"/>
    <trip id="218" depart="54.50" from="-6007551#3" to="-606944439"/>
    <trip id="219" depart="54.75" from="-170677024#1" to="-4853868#6"/>
    <trip id="220" depart="55.00" from="-344551856#0" to="194334891"/>
    <trip id="221" depart="55.25" from="184840188#3" to="133856524#2"/>
    <trip id="222" depart="55.50" from="6993193" to="24831224#2"/>
    <trip id="223" depart="55.75" from="149736970#0" to="4698188#1"/>
    <trip id="224" depart="56.00" from="368285695" to="5033232#0"/>
    <trip id="225" depart="56.25" from="-4853868#5" to="165664173#1"/>
    <trip id="226" depart="56.50" from="4853863#0" to="-4344104#4"/>
    <trip id="227" depart="56.75" from="-15952223#0" to="174858369#0"/>
    <trip id="228" depart="57.00" from="-264304941#1" to="-84591012#5"/>
    <trip id="229" depart="57.25" from="416322805#0" to="33926981#1"/>
    <trip id="230" depart="57.50" from="-184840188#2" to="66478404#1"/>
    <trip id="231" depart="57.75" from="22634713#0" to="-191264757#0"/>
    <trip id="232" depart="58.00" from="388471844" to="14763660#1"/>
    <trip id="233" depart="58.25" from="-344551857" to="13229614#0"/>
    <trip id="234" depart="58.50" from="-32560057#1" to="-6007543#6"/>
    <trip id="235" depart="58.75" from="40390604" to="188159934#0"/>
    <trip id="236" depart="59.00" from="-5033133#0" to="610188547#1"/>
    <trip id="237" depart="59.25" from="-279297479" to="4344104#5"/>
    <trip id="238" depart="59.50" from="-62045202#0" to="66452130#3"/>
    <trip id="239" depart="59.75" from="195231316#1" to="-190458059#2"/>
    <trip id="240" depart="60.00" from="301149679#5" to="-13229614#1"/>
    <trip id="241" depart="60.25" from="188159934#0" to="149736970#6"/>
    <trip id="242" depart="60.50" from="-4854294#3" to="-606944439"/>
    <trip id="243" depart="60.75" from="397483170#3" to="-190458059#3"/>
    <trip id="244" depart="61.00" from="167299074#1" to="-32559979#1"/>
    <trip id="245" depart="61.25" from="-4698533#1" to="-32560077#1"/>
    <trip id="246" depart="61.50" from="-32559979#5" to="4854294#7"/>
    <trip id="247" depart="61.75" from="-279297531" to="190458059#2"/>
    <trip id="248" depart="62.00" from="-190458059#2" to="-143971212#0"/>
    <trip id="249" depart="62.25" from="-16243599#3" to="4698533#3"/>
    <trip id="250" depart="62.50" from="-416322805#9" to="416322805#15"/>
    <trip id="251" depart="62.75" from="-178616461" to="5033136#0"/>
    <trip id="252" depart="63.00" from="-4854319#0" to="150154690#0"/>
    <trip id="253" depart="63.25" from="13229614#0" to="178616461"/>
    <trip id="254" depart="63.50" from="24831224#1" to="39726121#1"/>
    <trip id="255" depart="63.75" from="-33926105" to="149736970#9"/>
    <trip id="256" depart="64.00" from="66452130#3" to="-301149679#4"/>
    <trip id="257" depart="64.25" from="117343692#1" to="-4357036#3"/>
    <trip id="258" depart="64.50" from="-275180104" to="-448758335#0"/>
    <trip id="259" depart="64.75" from="181682315#0" to="-4698188#1"/>
    <trip id="260" depart="65.00" from="-5033136#1" to="195231318#2"/>
    <trip id="261" depart="65.25" from="170677024#3" to="416322805#6"/>
    <trip id="262" depart="65.50" from="-194334905#1" to="24781805"/>
    <trip id="263" depart="65.75" from="47474728#1" to="-170677024#1"/>
    <trip id="264" depart="66.00" from="20345583" to="150154690#0"/>
    <trip id="265" depart="66.25" from="190458059#3" to="-84591012#0"/>
    <trip id="266" depart="66.50" from="-22634433" to="6007553#0"/>
    <trip id="267" depart="66.75" from="195231317#1" to="461406765#1"/>
    <trip id="268" depart="67.00" from="149736970#6" to="-37669107#2"/>
    <trip id="269" depart="67.25" from="39726111" to="-39560877#1"/>
    <trip id="270" depart="67.50" from="149736970#6" to="-20345557#4"/>
    <trip id="271" depart="67.75" from="-416322805#12" to="-27002290#1"/>
    <trip id="272" depart="68.00" from="-190458059#0" to="84591012#13"/>
    <trip id="273" depart="68.25" from="243129119" to="-4854294#4"/>
    <trip id="274" depart="68.50" from="-25843529#2" to="397483170#1"/>
    <trip id="275" depart="68.75" from="33926105" to="4357036#4"/>
    <trip id="276" depart="69.00" from="4854287#0" to="195231317#0"/>
    <trip id="277" depart="69.25" from="149736970#4" to="115720792"/>
    <trip id="278" depart="69.50" from="-13229614#4" to="-5033133#2"/>
    <trip id="279" depart="69.75" from="4854319#0" to="461406765#1"/>
    <trip id="280" depart="70.00" from="-66488270#1" to="-84591012#5"/>
    <trip id="281" depart="70.25" from="305353582#0" to="-143971218#1"/>
    <trip id="282" depart="70.50" from="-195231317#1" to="195231320"/>
    <trip id="283" depart="70.75" from="-272118465#3" to="-6007551#4"/>
    <trip id="284" depart="71.00" from="-4698188#2" to="6007553#0"/>
    <trip id="285" depart="71.25" from="6007547#1" to="322315674#11"/>
    <trip id="286" depart="71.50" from="-448758335#1" to="6007541"/>
    <trip id="287" depart="71.75" from="-33926925" to="-4853863#1"/>
    <trip id="288" depart="72.00" from="-192785370" to="5761300#0"/>
    <trip id="289" depart="72.25" from="-4854294#2" to="20345557#4"/>
    <trip id="290" depart="72.50" from="323811995" to="167143477#0"/>
    <trip id="291" depart="72.75" from="4854289#11" to="-4853868#3"/>
    <trip id="292" depart="73.00" from="4853868#1" to="191264757#0"/>
    <trip id="293" depart="73.25" from="448758335#0" to="149736970#6"/>
    <trip id="294" depart="73.50" from="4698188#4" to="196029147"/>
    <trip id="295" depart="73.75" from="-322315676" to="-606942683#2"/>
    <trip id="296" depart="74.00" from="84591030#0" to="-39560877#1"/>
    <trip id="297" depart="74.25" from="-4854294#1" to="-5033133#0"/>
    <trip id="298" depart="74.50" from="33927068" to="-20345485#1"/>
    <trip id="299" depart="74.75" from="7659328" to="4344104#2"/>
    <trip id="300" depart="75.00" from="322315674#2" to="279297478#3"/>
    <trip id="301" depart="75.25" from="170677020" to="-6007543#1"/>
    <trip id="302" depart="75.50" from="-416322805#8" to="32560077#1"/>
    <trip id="303" depart="75.75" from="149736970#6" to="275182204#0"/>
    <trip id="304" depart="76.00" from="-195231318#0" to="326329173"/>
    <trip id="305" depart="76.25" from="-20345557#0" to="37669106#2"/>
    <trip id="306" depart="76.50" from="-601393222#0" to="165664174"/>
    <trip id="307" depart="76.75" from="279297476" to="-4853863#1"/>
    <trip id="308" depart="77.00" from="-37669178#0" to="14763660#1"/>
    <trip id="309" depart="77.25" from="272118465#2" to="-6007543#2"/>
    <trip id="310" depart="77.50" from="-20345557#4" to="495967572"/>
    <trip id="311" depart="77.75" from="61509252#0" to="133856526"/>
    <trip id="312" depart="78.00" from="5033137#1" to="-170677024#2"/>
    <trip id="313" depart="78.25" from="5033233" to="13229614#1"/>
    <trip id="314" depart="78.50" from="-40388636#4" to="-25843529#2"/>
    <trip id="315" depart="78.75" from="196029147" to="-6007540#1"/>
    <trip id="316" depart="79.00" from="-4357036#2" to="150342296#0"/>
    <trip id="317" depart="79.25" from="8068335#2" to="-195231317#0"/>
    <trip id="318" depart="79.50" from="461404503#0" to="33926981#1"/>
    <trip id="319" depart="79.75" from="-5033253#2" to="-7339891#0"/>
    <trip id="320" depart="80.00" from="32087469" to="-181200021"/>
    <trip id="321" depart="80.25" from="40390594#0" to="20345485#1"/>
    <trip id="322" depart="80.50" from="20345557#4" to="184840188#1"/>
    <trip id="323" depart="80.75" from="-4853868#2" to="-194334905#0"/>
    <trip id="324" depart="81.00" from="-193602872#3" to="-5033253#1"/>
    <trip id="325" depart="81.25" from="150154689#7" to="4854294#7"/>
    <trip id="326" depart="81.50" from="-20345557#2" to="4854290#0"/>
    <trip id="327" depart="81.75" from="-243129121#4" to="6993189#0"/>
    <trip id="328" depart="82.00" from="295152804#4" to="4854319#2"/>
    <trip id="329" depart="82.25" from="191264757#0" to="-416322805#15"/>
    <trip id="330" depart="82.50" from="416322805#9" to="-150154696"/>
    <trip id="331" depart="82.75" from="-264302763" to="16243754#1"/>
    <trip id="332" depart="83.00" from="-22634433" to="-84591012#9"/>
    <trip id="333" depart="83.25" from="24955336" to="34511848#1"/>
    <trip id="334" depart="83.50" from="279297476" to="416322805#5"/>
    <trip id="335" depart="83.75" from="-4698534#2" to="-344551857"/>
    <trip id="336" depart="84.00" from="4854294#7" to="5761300#1"/>
    <trip id="337" depart="84.25" from="-523276967#1" to="150154692#2"/>
    <trip id="338" depart="84.50" from="-180337613" to="84591012#5"/>
    <trip id="339" depart="84.75" from="-322315674#2" to="33926870#0"/>
    <trip id="340" depart="85.00" from="-397483170#2" to="-30742691#0"/>
    <trip id="341" depart="85.25" from="-4579203" to="295152803#0"/>
    <trip id="342" depart="85.50" from="162961617#2" to="-416322805#0"/>
    <trip id="343" depart="85.75" from="279297476" to="37669178#0"/>
    <trip id="344" depart="86.00" from="606942683#1" to="-4853869#5"/>
    <trip id="345" depart="86.25" from="-188159934#0" to="613398565"/>
    <trip id="346" depart="86.50" from="523276970#1" to="47474729#0"/>
    <trip id="347" depart="86.75" from="243129121#2" to="-167536769#2"/>
    <trip id="348" depart="87.00" from="295152804#2" to="20585595#5"/>
    <trip id="349" depart="87.25" from="-6007551#3" to="-188159934#0"/>
    <trip id="350" depart="87.50" from="-33926981#1" to="150154689#2"/>
    <trip id="351" depart="87.75" from="-16315245#1" to="143971212#0"/>
    <trip id="352" depart="88.00" from="275182204#0" to="-4854295"/>
    <trip id="353" depart="88.25" from="-84591012#8" to="181682315#0"/>
    <trip id="354" depart="88.50" from="-4344104#10" to="-167536769#3"/>
    <trip id="355" depart="88.75" from="-20345557#5" to="197462255#0"/>
    <trip id="356" depart="89.00" from="-344551856#0" to="-37669178#0"/>
    <trip id="357" depart="89.25" from="4854294#4" to="279297479"/>
    <trip id="358" depart="89.50" from="-33926981#1" to="-606942683#2"/>
    <trip id="359" depart="89.75" from="-150154696" to="352695284"/>
    <trip id="360" depart="90.00" from="-32559954#4" to="149736970#0"/>
    <trip id="361" depart="90.25" from="-73920101" to="150154689#7"/>
    <trip id="362" depart="90.50" from="150154689#2" to="133856524#0"/>
    <trip id="363" depart="90.75" from="606942684" to="33926925"/>
    <trip id="364" depart="91.00" from="295152804#0" to="-13229614#2"/>
    <trip id="365" depart="91.25" from="4854289#2" to="143971214"/>
    <trip id="366" depart="91.50" from="84591012#3" to="66478404#3"/>
    <trip id="367" depart="91.75" from="4357036#4" to="193602872#3"/>
    <trip id="368" depart="92.00" from="-4854294#1" to="22634432#1"/>
    <trip id="369" depart="92.25" from="4698075#3" to="39726121#0"/>
    <trip id="370" depart="92.50" from="-420243390" to="275180102"/>
    <trip id="371" depart="92.75" from="181682315#0" to="8113462#2"/>
    <trip id="372" depart="93.00" from="243129121#3" to="346466371"/>
    <trip id="373" depart="93.25" from="32559979#1" to="-22634711#0"/>
    <trip id="374" depart="93.50" from="388471844" to="-523276970#0"/>
    <trip id="375" depart="93.75" from="-39726119#0" to="-4853868#1"/>
    <trip id="376" depart="94.00" from="149736970#14" to="47474727#0"/>
    <trip id="377" depart="94.25" from="84589838#9" to="-84591012#3"/>
    <trip id="378" depart="94.50" from="150154689#6" to="-84591012#3"/>
    <trip id="379" depart="94.75" from="149736970#0" to="5761300#1"/>
    <trip id="380" depart="95.00" from="191005886#2" to="181682315#7"/>
    <trip id="381" depart="95.25" from="-184817880#0" to="149736970#0"/>
    <trip id="382" depart="95.50" from="295152803#2" to="13229614#1"/>
    <trip id="383" depart="95.75" from="-4698188#1" to="-191005886#1"/>
    <trip id="384" depart="96.00" from="-170677024#0" to="33926105"/>
    <trip id="385" depart="96.25" from="84591012#3" to="184840188#0"/>
    <trip id="386" depart="96.50" from="39726111" to="40390594#0"/>
    <trip id="387" depart="96.75" from="6007553#1" to="-191005886#2"/>
    <trip id="388" depart="97.00" from="-215135648" to="-188159959#0"/>
    <trip id="389" depart="97.25" from="4357036#1" to="150154689#4"/>
    <trip id="390" depart="97.50" from="-4853869#5" to="4826368#1"/>
    <trip id="391" depart="97.75" from="-275180104" to="299531763#1"/>
    <trip id="392" depart="98.00" from="-4357036#4" to="-275180102"/>
    <trip id="393" depart="98.25" from="8113462#2" to="-193602872#5"/>
    <trip id="394" depart="98.50" from="-165664174" to="6007543#2"/>
    <trip id="395" depart="98.75" from="4853869#1" to="310578755#0"/>
    <trip id="396" depart="99.00" from="194334891" to="-264302766"/>
    <trip id="397" depart="99.25" from="66452126#1" to="16315245#1"/>
    <trip id="398" depart="99.50" from="-397483170#2" to="4357036#4"/>
    <trip id="399" depart="99.75" from="388471843#2" to="-32560077#0"/>
</routes>
