<routes>
        <vType id="typeWE" accel="0.8" decel="4.5" sigma="0.5" length="5" minGap="2.5" maxSpeed="16.67" guiShape="passenger"/>
        <vType id="typeNS" accel="0.8" decel="4.5" sigma="0.5" length="7" minGap="3" maxSpeed="25" guiShape="bus"/>

        <route id="right" edges="10 02" />
        <route id="left" edges="20 01" />
        <route id="down" edges="30 04" />
        <route id="up" edges="40 03" />
    <vehicle id="left_0" type="typeWE" route="left" depart="0" color="0,0,1" parking="True"/>
    <vehicle id="right_0" type="typeWE" route="right" depart="2" color="1,0,0" parking="True">
	</vehicle>
    <vehicle id="right_1" type="typeWE" route="right" depart="5" parking="True"/>
    <vehicle id="down_0" type="typeNS" route="down" depart="4"/>
</routes>
