<?xml version="1.0" encoding="UTF-8"?>

<!-- generated on Fri Nov 23 20:36:14 2018 by Eclipse SUMO polyconvert Version 1.0.1
<configuration xmlns:xsi="http://www.w3.org/2001/XMLSchema-instance" xsi:noNamespaceSchemaLocation="http://sumo.dlr.de/xsd/polyconvertConfiguration.xsd">

    <input>
        <net-file value="map.net.xml"/>
        <osm-files value="map.osm"/>
        <type-file value="typemap.xml"/>
    </input>

    <output>
        <output-file value="map.poly.xml"/>
    </output>

    <processing>
        <poi-layer-offset value="5"/>
    </processing>

</configuration>
-->

<additional xmlns:xsi="http://www.w3.org/2001/XMLSchema-instance" xsi:noNamespaceSchemaLocation="http://sumo.dlr.de/xsd/additional_file.xsd">
    <location netOffset="-461399.79,-5099320.72" convBoundary="-0.00,0.00,1215.18,1248.99" origBoundary="14.501079,46.046372,14.516730,46.057669" projParameter="+proj=utm +zone=33 +ellps=WGS84 +datum=WGS84 +units=m +no_defs"/>

    <poly id="111584761" type="amenity" color="237,199,199" fill="1" layer="-1.00" shape="281.555848,688.454024 277.116045,677.392679 289.935983,672.590624 294.111566,671.031294 311.415387,665.723603 311.978112,667.886787 315.368742,676.943553 294.398559,683.585168 281.555848,688.454024"/>
    <poly id="111584761#1" type="building" color="255,230,230" fill="1" layer="-1.00" shape="281.555848,688.454024 277.116045,677.392679 289.935983,672.590624 294.111566,671.031294 311.415387,665.723603 311.978112,667.886787 315.368742,676.943553 294.398559,683.585168 281.555848,688.454024"/>
    <poly id="140118468" type="amenity" color="237,199,199" fill="1" layer="-1.00" shape="276.501971,993.788123 267.193838,964.901381 239.593187,974.962300 234.900515,976.680450 244.203660,1004.744948 276.501971,993.788123"/>
    <poly id="140118468#1" type="building" color="255,230,230" fill="1" layer="-1.00" shape="276.501971,993.788123 267.193838,964.901381 239.593187,974.962300 234.900515,976.680450 244.203660,1004.744948 276.501971,993.788123"/>
    <poly id="153059519" type="parking" color="184,184,179" fill="1" layer="-1.00" shape="414.999005,1161.373324 417.052844,1168.238422 451.111664,1158.104924 465.385067,1205.750230 478.233301,1201.926162 461.898395,1147.404652 414.999005,1161.373324"/>
    <poly id="153059527" type="building" color="255,230,230" fill="1" layer="-1.00" shape="439.216717,1218.379194 424.451199,1169.992547 452.185011,1161.542746 465.385067,1205.750230 466.394106,1208.799561 479.228722,1205.275582 485.230863,1225.160810 463.491710,1231.017741 452.305026,1227.087028 447.337970,1228.195603 435.545727,1218.924182 439.216717,1218.379194"/>
    <poly id="161736856" type="building" color="255,230,230" fill="1" layer="-1.00" shape="1001.510749,753.593010 1056.638221,751.078761 1056.058212,738.426655 1000.922960,740.952066 1001.510749,753.593010"/>
    <poly id="161736858" type="building" color="255,230,230" fill="1" layer="-1.00" shape="916.757335,751.577891 951.538625,741.431672 1023.396492,789.137408 1024.593742,817.985862 1008.853870,817.193064 1007.330623,795.779990 973.997468,773.227921 973.207786,795.910689 960.109611,795.735207 960.726730,770.142360 949.865771,762.630945 922.680827,770.152880 916.757335,751.577891"/>
    <poly id="177683904" type="building" color="255,230,230" fill="1" layer="-1.00" shape="529.402584,728.927728 513.697147,669.979961 505.826842,672.062008 501.988287,673.085770 504.221654,681.449793 508.268882,696.647092 503.657993,697.875634 506.382523,708.103300 510.947128,706.897269 517.647484,732.044905 529.402584,728.927728"/>
    <poly id="177683906" type="building" color="255,230,230" fill="1" layer="-1.00" shape="675.842168,682.867934 689.647716,682.294008 689.722386,688.138037 698.439560,687.895471 699.636458,696.332610 695.260213,696.726224 697.082471,708.726207 712.538384,706.064377 708.220625,682.024103 705.581273,678.040319 689.594539,677.427632 689.529863,671.950211 675.234056,672.060487 675.842168,682.867934"/>
    <poly id="177683911" type="building" color="255,230,230" fill="1" layer="-1.00" shape="419.773293,644.005995 431.991409,688.097253 444.976857,683.772277 442.830801,678.274423 445.460546,676.935891 446.686306,678.739420 456.994104,675.508852 454.567962,667.257151 444.240662,671.087849 438.043337,653.515011 449.948861,649.685634 445.631412,640.845653 439.675770,641.049236 431.553838,642.477376 419.773293,644.005995"/>
    <poly id="177683914" type="building" color="255,230,230" fill="1" layer="-1.00" shape="592.609622,693.059102 603.350914,679.837137 615.739449,674.038418 629.387561,674.276446 631.499941,674.341195 630.712775,670.890468 643.714909,670.499174 644.189628,675.974067 644.773202,682.792743 632.367306,683.269248 633.087252,688.364847 617.945255,687.991582 608.685580,691.837639 611.340577,700.854658 606.636992,703.361483 603.344464,697.592870 598.596605,701.699987 592.609622,693.059102"/>
    <poly id="177683918" type="building" color="255,230,230" fill="1" layer="-1.00" shape="543.972207,660.503768 545.072652,648.296870 559.155067,652.454311 584.078473,664.544890 584.444136,666.131533 596.582400,672.423304 588.449749,685.895842 572.595441,677.915916 571.513465,679.344833 577.752855,685.006338 572.637867,689.793525 576.914031,694.489371 581.556426,688.338428 586.126222,689.221326 578.894214,699.454957 566.395720,707.476671 563.743148,703.870809 553.654742,710.055421 549.092119,707.828048 547.643835,688.792406 555.406883,688.133309 560.027236,698.449282 571.057111,691.881084 565.186642,685.828415 566.201305,683.522128 551.863006,665.488366 554.834647,663.136649 552.384925,661.062884 543.972207,660.503768"/>
    <poly id="177683921" type="building" color="255,230,230" fill="1" layer="-1.00" shape="437.880984,707.194228 467.924245,818.953415 486.845377,811.269508 483.143875,798.181208 451.675745,703.642033 437.880984,707.194228"/>
    <poly id="177683926" type="building" color="255,230,230" fill="1" layer="-1.00" shape="505.826842,672.062008 503.160092,662.422878 490.440776,666.012744 489.161673,668.087345 481.253796,670.347435 478.044833,659.356107 476.258937,659.544946 472.701902,646.066867 476.758451,645.263961 475.092392,633.574186 485.867947,630.907442 493.527236,638.471197 494.912762,639.840410 502.980078,640.834933 502.707596,653.058938 511.000921,653.074287 510.926737,646.085802 518.225228,646.607320 518.413938,650.850631 520.123716,650.862277 521.391631,666.987894 531.713846,666.079603 529.963416,648.234732 530.834110,640.162618 513.683332,635.235328 501.913311,632.219244 500.092303,630.486056 491.057693,621.953020 492.017398,620.769292 484.493380,613.815817 476.595275,608.920239 474.357974,612.423011 468.812367,610.135117 464.476667,608.339737 458.541823,623.143288 462.503229,624.463201 466.301903,625.739680 466.558469,633.438152 459.227928,635.239134 463.167157,649.214841 458.749571,650.431107 462.716569,663.895527 466.979773,662.735775 473.545088,686.028631 472.155312,686.470575 473.024977,689.487435 471.332677,689.797919 479.544749,720.425086 487.013200,718.423271 479.299907,688.381900 504.221654,681.449793 501.988287,673.085770 505.826842,672.062008"/>
    <poly id="177683934" type="building" color="255,230,230" fill="1" layer="-1.00" shape="658.765083,676.050886 672.116692,675.879721 673.044581,688.362989 659.546223,688.568389 658.765083,676.050886"/>
    <poly id="177683936" type="building" color="255,230,230" fill="1" layer="-1.00" shape="543.521562,771.562990 529.402584,728.927728 517.647484,732.044905 514.970438,733.239254 528.875311,776.264701 543.521562,771.562990"/>
    <poly id="177683938" type="building" color="255,230,230" fill="1" layer="-1.00" shape="644.189628,675.974067 658.765083,676.050886 659.546223,688.568389 659.726140,692.656201 645.606593,692.487680 644.773202,682.792743 644.189628,675.974067"/>
    <poly id="177683940" type="building" color="255,230,230" fill="1" layer="-1.00" shape="519.221102,802.591295 550.775072,793.618330 543.521562,771.562990 528.875311,776.264701 531.377571,784.338180 514.861713,789.440379 519.221102,802.591295"/>
    <poly id="177683942" type="building" color="255,230,230" fill="1" layer="-1.00" shape="478.559225,753.664791 511.136099,744.940849 502.846032,714.180789 487.013200,718.423271 479.544749,720.425086 470.269006,722.904774 478.559225,753.664791"/>
    <poly id="177683944" type="building" color="255,230,230" fill="1" layer="-1.00" shape="431.991409,688.097253 437.880984,707.194228 451.675745,703.642033 450.069811,699.163060 454.832584,697.477977 451.357996,687.321648 446.749452,688.927999 444.976857,683.772277 431.991409,688.097253"/>
    <poly id="177683945" type="building" color="255,230,230" fill="1" layer="-1.00" shape="584.790609,700.940776 589.652773,711.588614 598.596605,701.699987 592.609622,693.059102 584.790609,700.940776"/>
    <poly id="179744269" type="building" color="255,230,230" fill="1" layer="-1.00" shape="234.079509,681.105216 244.137432,677.520289 248.076729,687.706943 270.185743,680.091404 277.116045,677.392679 281.555848,688.454024 218.658472,710.434925 203.223636,666.830804 204.596627,663.699992 219.735747,656.149969 226.123630,673.165847 241.199567,666.649613 255.252126,661.017576 257.791311,667.501815 233.113106,678.722330 234.079509,681.105216"/>
    <poly id="179745671" type="building" color="255,230,230" fill="1" layer="-1.00" shape="348.038370,739.140984 341.147517,717.061400 307.448135,726.893234 314.584783,749.915706 348.038370,739.140984"/>
    <poly id="179745672" type="building" color="255,230,230" fill="1" layer="-1.00" shape="375.915256,753.434612 401.480617,748.053656 405.755375,762.482807 404.727714,783.878249 371.010985,794.609854 366.697279,780.147634 374.257623,768.045027 375.915256,753.434612"/>
    <poly id="179745675" type="building" color="255,230,230" fill="1" layer="-1.00" shape="375.806037,845.480506 455.483485,822.497187 441.555215,774.516447 421.353781,780.341750 428.041271,803.367135 434.914091,801.391171 437.032524,808.678098 426.337278,811.766660 418.969838,786.378808 363.308074,802.435539 375.806037,845.480506"/>
    <poly id="179745676" type="building" color="255,230,230" fill="1" layer="-1.00" shape="405.755375,762.482807 436.635022,752.046763 411.441356,663.957836 406.392486,659.433566 337.787849,681.859767 356.714073,743.442673 396.063376,731.531581 401.480617,748.053656 405.755375,762.482807"/>
    <poly id="186332662" type="building" color="255,230,230" fill="1" layer="-1.00" shape="992.455727,1153.084629 1061.248881,1136.697903 1053.502056,1104.422686 1021.445783,1112.062812 1020.088510,1106.415500 1009.838219,1108.855886 1011.401911,1115.368609 984.922778,1121.685972 992.455727,1153.084629"/>
    <poly id="186332664" type="building" color="255,230,230" fill="1" layer="-1.00" shape="799.383606,1130.467125 812.370411,1126.476241 804.154398,1099.893138 791.167542,1103.884039 799.383606,1130.467125"/>
    <poly id="186332669" type="building" color="255,230,230" fill="1" layer="-1.00" shape="974.856761,1184.636874 987.475594,1181.193056 973.867756,1131.675839 961.048050,1135.176468 963.334510,1143.495885 958.816762,1144.734631 961.316695,1153.808304 965.958066,1152.546580 969.613217,1165.846559 963.998842,1167.380898 966.926110,1178.029750 972.609958,1176.472767 974.856761,1184.636874"/>
    <poly id="186332671" type="building" color="255,230,230" fill="1" layer="-1.00" shape="751.878676,1117.803388 778.927304,1109.781507 782.473656,1121.670925 755.425076,1129.692790 751.878676,1117.803388"/>
    <poly id="186332672" type="building" color="255,230,230" fill="1" layer="-1.00" shape="865.152291,1100.263336 891.679242,1094.178501 887.149862,1074.583874 881.418029,1075.896783 879.471111,1067.464203 864.415383,1070.912067 866.592641,1080.321016 860.853083,1081.633991 865.152291,1100.263336"/>
    <poly id="186332677" type="building" color="255,230,230" fill="1" layer="-1.00" shape="788.460872,1091.422787 801.976283,1087.839749 798.571669,1075.093888 785.048497,1078.676981 788.460872,1091.422787"/>
    <poly id="186332679" type="building" color="255,230,230" fill="1" layer="-1.00" shape="942.542284,1192.979002 956.783786,1189.247414 943.574419,1139.150041 929.332808,1142.881659 942.542284,1192.979002"/>
    <poly id="186332681" type="building" color="255,230,230" fill="1" layer="-1.00" shape="911.351931,1200.447743 926.535328,1196.421426 913.638085,1148.066662 898.454508,1152.081900 911.351931,1200.447743"/>
    <poly id="186332682" type="building" color="255,230,230" fill="1" layer="-1.00" shape="808.462778,1161.567182 800.697351,1135.292430 813.893682,1131.411374 821.659125,1157.697253 808.462778,1161.567182"/>
    <poly id="186332684" type="building" color="255,230,230" fill="1" layer="-1.00" shape="976.729932,1113.958207 946.543998,1002.430819 879.538862,1020.452309 825.856264,1034.892735 832.061835,1057.832615 848.789826,1053.341074 846.383741,1044.466873 934.904822,1020.646611 957.366311,1103.620959 851.431190,1132.114389 839.242127,1087.088795 848.556000,1084.587200 844.772618,1070.610294 833.110913,1073.737415 822.947912,1036.199483 807.957568,1040.224865 838.019152,1151.274589 976.729932,1113.958207"/>
    <poly id="186332688" type="building" color="255,230,230" fill="1" layer="-1.00" shape="766.018542,1155.416766 793.588382,1146.636182 797.681614,1159.411146 770.119562,1168.191665 766.018542,1155.416766"/>
    <poly id="186332691" type="building" color="255,230,230" fill="1" layer="-1.00" shape="769.565542,1091.894448 783.478790,1088.853373 781.544959,1080.054072 767.631624,1083.084041 769.565542,1091.894448"/>
    <poly id="186332693" type="building" color="255,230,230" fill="1" layer="-1.00" shape="779.753076,1208.921688 791.789838,1205.192153 783.198288,1179.178053 771.584461,1182.505002 779.753076,1208.921688"/>
    <poly id="186332696" type="tourism" color="207,245,201" fill="1" layer="-2.00" shape="698.604926,1174.587222 768.187581,1173.536917 776.233634,1216.510044 843.064535,1215.877494 845.262564,1223.630741 834.243738,1236.931782 721.059375,1235.871730 717.592878,1230.681910 698.604926,1174.587222"/>
    <poly id="186332698" type="building" color="255,230,230" fill="1" layer="-1.00" shape="604.094138,1177.469939 624.145811,1171.379473 617.893045,1150.928992 597.841379,1157.030588 604.094138,1177.469939"/>
    <poly id="186332699" type="building" color="255,230,230" fill="1" layer="-1.00" shape="724.511959,1087.949257 722.895468,1079.192466 746.517216,1073.669331 757.916436,1105.866168 778.219640,1100.363557 776.242855,1093.386758 761.581442,1094.265765 755.644982,1073.613204 794.563045,1059.729495 789.217083,1043.262200 678.781506,1075.852943 704.985590,1153.036644 700.060323,1154.666983 703.145696,1167.048089 707.766057,1166.152969 715.023642,1170.186106 756.655230,1169.985558 755.840400,1155.723784 721.908895,1155.199162 717.846173,1152.435253 707.342027,1114.866266 714.113553,1111.557889 711.133728,1099.987246 703.104217,1100.003344 697.352989,1085.594193 709.181220,1083.143572 711.399858,1091.696651 724.511959,1087.949257"/>
    <poly id="186332700" type="building" color="255,230,230" fill="1" layer="-1.00" shape="1005.406085,1207.705943 1020.918202,1204.300078 1012.127595,1164.531223 996.607646,1167.937156 1005.406085,1207.705943"/>
    <poly id="186332702" type="building" color="255,230,230" fill="1" layer="-1.00" shape="589.228018,1231.595526 685.037960,1232.549044 693.381089,1231.986540 699.259038,1225.539177 693.368348,1206.053067 692.799847,1204.178774 696.978590,1201.919688 692.495469,1188.669407 688.278115,1188.428713 680.628028,1165.886760 662.656249,1171.830886 672.590147,1200.936578 676.328799,1201.324656 678.035480,1208.391979 679.514757,1213.705132 642.228256,1213.490515 636.434223,1192.148290 645.501824,1187.381218 643.405253,1179.816304 625.501317,1185.460119 634.508711,1213.571460 618.395287,1213.515315 618.780920,1217.090744 602.545730,1217.357617 595.436040,1192.179073 580.355910,1139.005081 582.388073,1132.370250 610.542688,1121.851885 619.841438,1149.516957 623.722171,1150.359687 626.704605,1162.330277 629.127289,1175.104328 637.834726,1173.395048 638.221740,1169.670407 656.448972,1163.757969 660.352702,1168.333944 670.290200,1164.128218 647.073735,1093.548514 558.945299,1124.237241 579.318522,1196.478649 589.228018,1231.595526"/>
    <poly id="186332703" type="building" color="255,230,230" fill="1" layer="-1.00" shape="836.241108,1208.197070 825.338073,1173.563692 807.534038,1179.128583 818.429497,1213.773089 836.241108,1208.197070"/>
    <poly id="186335697" type="building" color="255,230,230" fill="1" layer="-1.00" shape="516.386223,1180.878684 529.438199,1177.464579 525.413975,1162.178227 512.361968,1165.592340 516.386223,1180.878684"/>
    <poly id="186335708" type="building" color="255,230,230" fill="1" layer="-1.00" shape="1029.534659,987.434718 1053.318368,1076.845821 1011.678764,1087.233370 1012.115268,1091.575182 986.024230,1099.390180 980.079703,1077.293006 983.389358,1075.828323 969.163903,1022.759314 965.222624,1023.405637 960.524657,1001.511974 1018.113465,985.648870 1019.797896,990.394177 1029.534659,987.434718"/>
    <poly id="186335711" type="building" color="255,230,230" fill="1" layer="-1.00" shape="934.551885,706.313108 942.992829,696.328063 935.696137,689.761544 948.036879,672.308151 942.399386,666.342591 947.545815,660.322181 943.786725,655.378472 948.334472,652.661748 947.868619,644.797875 938.535155,645.477194 907.869083,653.109375 897.316826,658.151806 893.390610,660.031422 900.111580,673.634801 912.228425,686.594036 922.460491,697.498148 934.551885,706.313108"/>
    <poly id="186335729" type="building" color="255,230,230" fill="1" layer="-1.00" shape="955.859977,681.460373 955.543205,662.551065 974.982326,662.232224 975.299038,681.141533 955.859977,681.460373"/>
    <poly id="186335731" type="building" color="255,230,230" fill="1" layer="-1.00" shape="983.946576,716.344491 983.780603,696.778700 1002.926603,696.617294 1003.092516,716.183085 983.946576,716.344491"/>
    <poly id="186335735" type="building" color="255,230,230" fill="1" layer="-1.00" shape="508.468456,1225.183623 516.340457,1223.490452 512.929855,1208.611424 512.468700,1201.591994 518.345709,1188.766629 528.123121,1182.461645 541.788975,1178.243762 533.080780,1143.552867 505.871234,1152.999065 508.111996,1160.085259 489.410286,1165.556628 508.468456,1225.183623"/>
    <poly id="186335751" type="building" color="255,230,230" fill="1" layer="-1.00" shape="1019.750686,1016.872440 1029.252833,1054.059159 1010.050267,1058.709765 1010.694341,1062.839196 1002.617018,1065.166323 998.269519,1066.426222 986.800747,1022.651516 1019.529349,1013.562656 1019.750686,1016.872440"/>
    <poly id="186335753" type="building" color="255,230,230" fill="1" layer="-1.00" shape="545.597122,1127.308666 573.636127,1228.302917 568.176149,1234.770041 493.741507,1234.163749 470.623384,1154.772884 499.833669,1146.136374 498.349270,1140.023287 545.597122,1127.308666"/>
    <poly id="186335778" type="building" color="255,230,230" fill="1" layer="-1.00" shape="912.336011,670.048814 923.397068,681.147854 931.839442,670.129446 926.207032,664.997209 924.934964,660.660518 913.524492,660.730361 916.468511,667.745722 912.336011,670.048814"/>
    <poly id="186337099" type="building" color="255,230,230" fill="1" layer="-1.00" shape="973.519416,969.654509 980.025733,968.470289 976.176389,947.460325 990.989558,944.769782 986.555716,920.518916 959.966167,925.359260 962.743417,940.553503 968.021167,939.599006 973.519416,969.654509"/>
    <poly id="186337100" type="building" color="255,230,230" fill="1" layer="-1.00" shape="943.822213,905.257847 958.329501,901.869093 953.135285,867.156156 936.547217,869.324310 943.822213,905.257847"/>
    <poly id="186337101" type="building" color="255,230,230" fill="1" layer="-1.00" shape="960.297580,988.413263 1013.563029,977.754373 999.091148,905.864446 956.278920,914.426171 955.393498,910.053775 941.941724,912.736074 948.021309,942.954666 951.026839,942.347389 960.297580,988.413263"/>
    <poly id="186337103" type="building" color="255,230,230" fill="1" layer="-1.00" shape="1014.268972,940.072005 1034.326961,936.093980 1023.379048,881.327067 987.450572,888.457656 990.578586,904.094214 1006.448862,900.941693 1014.268972,940.072005"/>
    <poly id="186337104" type="building" color="255,230,230" fill="1" layer="-1.00" shape="983.227407,873.372240 1001.999985,871.690873 1000.041694,849.980454 1010.054236,849.074853 1008.751666,834.660481 1000.857594,835.375364 1000.044254,826.335822 999.298022,818.151432 995.950155,818.449662 979.087186,819.963818 978.588751,814.355713 977.145222,798.408864 972.645331,798.814148 973.276101,805.821455 967.801988,806.310476 967.312773,800.946761 928.298169,804.440974 929.974469,823.008630 968.965749,819.514569 968.335044,812.518373 972.850396,812.112991 974.593336,831.480256 979.402495,831.050861 983.227407,873.372240"/>
    <poly id="186337107" type="building" color="255,230,230" fill="1" layer="-1.00" shape="989.609164,967.000604 996.255677,965.971101 994.476617,954.604107 987.837828,955.633565 989.609164,967.000604"/>
    <poly id="186337109" type="parking" color="184,184,179" fill="1" layer="-1.00" shape="937.993470,865.470988 963.220980,861.772221 958.056073,826.792434 932.828423,830.491221 937.993470,865.470988"/>
    <poly id="186340543" type="amenity" color="237,199,199" fill="1" layer="-1.00" shape="505.944752,992.386122 485.643721,923.300098 457.265700,931.587055 456.965414,930.566685 437.506270,936.254009 437.901452,937.607126 408.967633,946.064421 429.174496,1014.806341 505.944752,992.386122"/>
    <poly id="186340543#1" type="building" color="255,230,230" fill="1" layer="-1.00" shape="505.944752,992.386122 485.643721,923.300098 457.265700,931.587055 456.965414,930.566685 437.506270,936.254009 437.901452,937.607126 408.967633,946.064421 429.174496,1014.806341 505.944752,992.386122"/>
    <poly id="186512171" type="building" color="255,230,230" fill="1" layer="-1.00" shape="390.729394,1088.601066 419.089615,1080.069454 411.555505,1055.204864 383.202915,1063.736461 390.729394,1088.601066"/>
    <poly id="186512171#1" type="tourism" color="207,245,201" fill="1" layer="-2.00" shape="390.729394,1088.601066 419.089615,1080.069454 411.555505,1055.204864 383.202915,1063.736461 390.729394,1088.601066"/>
    <poly id="186512173" type="building" color="255,230,230" fill="1" layer="-1.00" shape="381.638735,1158.169233 451.323450,1137.358985 421.631534,1033.419948 378.245667,1046.511534 366.341993,1050.507719 373.029337,1074.766398 358.430625,1079.512677 368.175198,1111.507983 381.708431,1107.101679 378.237338,1095.000902 382.692299,1093.628784 386.638336,1107.471074 426.382271,1095.946584 434.972059,1126.404697 417.158079,1131.581889 416.833227,1129.094993 403.785551,1133.209316 402.736193,1131.149143 375.497997,1138.451633 381.638735,1158.169233"/>
    <poly id="186513045" type="building" color="255,230,230" fill="1" layer="-1.00" shape="599.528694,998.052169 541.838783,1014.897615 543.648262,1021.042034 546.598538,1020.268233 548.249276,1027.013640 554.156048,1025.221558 555.430849,1029.969274 580.696571,1022.579772 585.789917,1040.637355 588.477390,1039.898530 590.816153,1049.084164 559.239024,1059.112650 562.629061,1070.669576 558.900554,1071.937073 562.301479,1084.005047 564.161930,1083.382434 565.751207,1088.950438 572.274833,1086.843447 571.634311,1083.336263 594.508909,1075.850476 595.571024,1078.732832 622.801440,1070.086915 599.528694,998.052169"/>
    <poly id="186513046" type="building" color="255,230,230" fill="1" layer="-1.00" shape="569.839597,1073.313934 596.536945,1064.782306 593.050867,1053.948184 566.353476,1062.479826 569.839597,1073.313934"/>
    <poly id="186513047" type="building" color="255,230,230" fill="1" layer="-1.00" shape="575.114538,956.724817 593.223585,951.624047 589.657118,939.057077 584.135589,940.613409 584.863181,943.186715 572.283368,946.731113 575.114538,956.724817"/>
    <poly id="186513048" type="building" color="255,230,230" fill="1" layer="-1.00" shape="554.787392,1107.340573 628.334416,1084.197342 643.483489,1079.603869 612.378924,978.172689 524.711793,1004.892336 554.787392,1107.340573"/>
    <poly id="186513049" type="building" color="255,230,230" fill="1" layer="-1.00" shape="519.595328,993.134999 582.543805,974.723521 580.339340,967.248186 595.982935,963.773777 599.775138,970.305975 611.025915,967.014281 583.378295,873.106425 492.112444,899.804297 519.595328,993.134999"/>
    <poly id="186513050" type="building" color="255,230,230" fill="1" layer="-1.00" shape="509.949735,1113.295703 527.983732,1108.650758 523.847111,1092.709542 505.813139,1097.365610 509.949735,1113.295703"/>
    <poly id="186513051" type="building" color="255,230,230" fill="1" layer="-1.00" shape="469.665630,1130.034156 486.276591,1125.453460 481.347249,1107.683830 464.736243,1112.264539 469.665630,1130.034156"/>
    <poly id="186513052" type="building" color="255,230,230" fill="1" layer="-1.00" shape="573.986629,891.853474 532.899437,904.085301 535.687683,913.379247 530.251648,915.001766 527.573824,906.051587 510.655633,911.089623 515.687424,927.903074 512.637369,928.810842 514.912237,936.396830 559.388988,923.155035 553.279209,910.892694 571.301614,904.270163 579.468919,931.531046 585.352792,929.772470 573.986629,891.853474"/>
    <poly id="186513053" type="building" color="255,230,230" fill="1" layer="-1.00" shape="556.029101,960.298328 567.144822,957.685172 569.519598,967.681694 561.957294,969.472880 561.353671,966.932144 557.800408,967.776332 556.029101,960.298328"/>
    <poly id="186513054" type="building" color="255,230,230" fill="1" layer="-1.00" shape="459.259820,1094.853875 475.761060,1090.029385 477.349383,1095.430705 479.225775,1094.885746 495.727030,1090.061310 493.601297,1082.818851 495.879178,1082.149189 517.909259,1075.712797 509.123714,1046.066905 502.579797,1023.651657 507.923247,1022.085241 504.067130,1008.986772 439.536287,1027.864429 449.995431,1062.877677 459.259820,1094.853875"/>
    <poly id="186513055" type="building" color="255,230,230" fill="1" layer="-1.00" shape="551.915399,948.068097 564.690440,944.822454 562.549865,936.424500 549.774739,939.659037 551.915399,948.068097"/>
    <poly id="186513056" type="building" color="255,230,230" fill="1" layer="-1.00" shape="529.992239,978.126118 534.379073,976.976756 535.218620,980.138258 544.664179,977.657612 543.919593,974.839970 546.777202,974.088964 540.028325,948.541587 536.738200,949.406383 536.056934,946.821685 525.445117,949.609559 526.316370,952.893087 521.095456,954.269837 523.154946,962.057163 525.719021,961.374630 528.538981,972.046166 525.882153,972.740383 527.482182,978.786092 529.992239,978.126118"/>
    <poly id="186515077" type="building" color="255,230,230" fill="1" layer="-1.00" shape="851.752681,932.255295 861.700908,929.716500 857.858079,912.362150 847.909893,914.912062 851.752681,932.255295"/>
    <poly id="186515078" type="building" color="255,230,230" fill="1" layer="-1.00" shape="700.970194,877.781359 724.223460,870.082623 728.101176,881.725523 704.855753,889.435307 700.970194,877.781359"/>
    <poly id="186515079" type="building" color="255,230,230" fill="1" layer="-1.00" shape="760.024322,851.028966 800.163516,840.504500 796.971797,828.435119 773.190981,834.670140 767.100197,811.596282 782.137967,807.648295 787.428624,827.671503 798.179803,824.849895 789.554704,792.191507 747.407131,803.250614 760.024322,851.028966"/>
    <poly id="186515080" type="building" color="255,230,230" fill="1" layer="-1.00" shape="659.476878,1013.693614 687.170222,1006.045142 681.474191,985.546728 653.780761,993.195225 659.476878,1013.693614"/>
    <poly id="186515081" type="building" color="255,230,230" fill="1" layer="-1.00" shape="773.657618,908.090063 794.771298,900.926967 787.263229,893.939695 801.823652,900.472544 826.271344,894.533540 820.757761,874.711669 804.172280,877.291278 807.552525,865.892659 793.549702,858.211918 779.200207,864.622336 774.954673,849.759418 758.374266,853.172459 763.931385,878.782943 773.066050,884.837961 768.969061,887.852051 773.657618,908.090063"/>
    <poly id="186515082" type="building" color="255,230,230" fill="1" layer="-1.00" shape="605.563631,826.513523 729.833039,789.769710 724.670467,760.423469 704.356134,763.037398 705.219497,768.821017 699.832722,769.676408 702.794789,779.591582 711.912803,777.879887 713.601430,782.002859 692.056974,787.102198 690.365733,782.557022 684.558776,783.015012 684.581701,786.737122 627.408273,802.389654 624.476733,797.441032 617.431950,799.140064 618.715725,805.343304 599.659669,811.249844 605.563631,826.513523"/>
    <poly id="186515083" type="building" color="255,230,230" fill="1" layer="-1.00" shape="643.195680,957.660197 676.558255,947.276704 677.477758,949.615503 689.497651,945.585876 688.448841,942.347865 729.028270,929.309082 725.217538,917.232433 729.463227,915.761855 727.347500,908.852595 723.000628,910.223796 717.610194,894.123506 678.160775,907.288734 661.580339,859.201627 651.942188,861.849946 643.368409,833.869250 607.335512,845.369404 610.373657,866.339711 617.851601,884.704825 625.102132,900.071327 628.645730,918.971842 632.372544,934.971205 643.195680,957.660197"/>
    <poly id="186515084" type="building" color="255,230,230" fill="1" layer="-1.00" shape="856.022907,870.439750 886.669952,861.151844 883.608267,851.337195 880.743846,842.154677 849.258741,851.036637 856.022907,870.439750"/>
    <poly id="186515085" type="building" color="255,230,230" fill="1" layer="-1.00" shape="735.700651,888.467715 749.331626,884.739411 743.492151,863.541821 729.861201,867.281248 735.700651,888.467715"/>
    <poly id="186515086" type="building" color="255,230,230" fill="1" layer="-1.00" shape="830.608194,741.483553 844.280275,738.088548 836.667956,715.390628 859.030472,707.386764 855.633176,694.585277 820.836300,704.732132 830.608194,741.483553"/>
    <poly id="186515087" type="building" color="255,230,230" fill="1" layer="-1.00" shape="707.716010,749.605501 723.458322,746.986379 718.752024,718.881791 703.009641,721.500924 707.716010,749.605501"/>