<?xml version="1.0" encoding="UTF-8"?>

<!-- generated on Fri Nov 23 13:37:01 2018 by Eclipse SUMO netconvert Version 1.0.1
<configuration xmlns:xsi="http://www.w3.org/2001/XMLSchema-instance" xsi:noNamespaceSchemaLocation="http://sumo.dlr.de/xsd/netconvertConfiguration.xsd">

    <input>
        <osm-files value="map.osm"/>
    </input>

    <output>
        <output-file value="map.net.xml"/>
    </output>

    <projection>
        <proj.utm value="true"/>
    </projection>

</configuration>
-->

<net version="1.0" junctionCornerDetail="5" limitTurnSpeed="5.50" xmlns:xsi="http://www.w3.org/2001/XMLSchema-instance" xsi:noNamespaceSchemaLocation="http://sumo.dlr.de/xsd/net_file.xsd">

    <location netOffset="-461399.79,-5099320.72" convBoundary="0.00,0.00,1215.18,1248.99" origBoundary="14.501079,46.046372,14.516730,46.057669" projParameter="+proj=utm +zone=33 +ellps=WGS84 +datum=WGS84 +units=m +no_defs"/>

    <type id="highway.bridleway" priority="1" numLanes="1" speed="2.78" allow="pedestrian" oneway="1" width="2.00"/>
    <type id="highway.bus_guideway" priority="1" numLanes="1" speed="27.78" allow="bus" oneway="1"/>
    <type id="highway.cycleway" priority="1" numLanes="1" speed="8.33" allow="bicycle" oneway="0" width="1.00"/>
    <type id="highway.footway" priority="1" numLanes="1" speed="2.78" allow="pedestrian" oneway="1" width="2.00"/>
    <type id="highway.ford" priority="1" numLanes="1" speed="2.78" allow="army" oneway="0"/>
    <type id="highway.living_street" priority="3" numLanes="1" speed="2.78" disallow="tram rail_urban rail rail_electric ship" oneway="0"/>
    <type id="highway.motorway" priority="13" numLanes="2" speed="44.44" allow="private emergency authority army vip passenger hov taxi bus coach delivery truck trailer motorcycle evehicle custom1 custom2" oneway="1"/>
    <type id="highway.motorway_link" priority="12" numLanes="1" speed="22.22" allow="private emergency authority army vip passenger hov taxi bus coach delivery truck trailer motorcycle evehicle custom1 custom2" oneway="1"/>
    <type id="highway.path" priority="1" numLanes="1" speed="2.78" allow="bicycle pedestrian" oneway="1" width="2.00"/>
    <type id="highway.pedestrian" priority="1" numLanes="1" speed="2.78" allow="pedestrian" oneway="1" width="2.00"/>
    <type id="highway.primary" priority="9" numLanes="2" speed="27.78" disallow="tram rail_urban rail rail_electric ship" oneway="0"/>
    <type id="highway.primary_link" priority="8" numLanes="1" speed="22.22" disallow="tram rail_urban rail rail_electric ship" oneway="0"/>
    <type id="highway.raceway" priority="14" numLanes="2" speed="83.33" allow="vip" oneway="0"/>
    <type id="highway.residential" priority="4" numLanes="1" speed="13.89" disallow="tram rail_urban rail rail_electric ship" oneway="0"/>
    <type id="highway.secondary" priority="7" numLanes="2" speed="27.78" disallow="tram rail_urban rail rail_electric ship" oneway="0"/>
    <type id="highway.secondary_link" priority="6" numLanes="1" speed="22.22" disallow="tram rail_urban rail rail_electric ship" oneway="0"/>
    <type id="highway.service" priority="2" numLanes="1" speed="5.56" allow="delivery bicycle pedestrian" oneway="0"/>
    <type id="highway.stairs" priority="1" numLanes="1" speed="1.39" allow="pedestrian" oneway="1" width="2.00"/>
    <type id="highway.step" priority="1" numLanes="1" speed="1.39" allow="pedestrian" oneway="1" width="2.00"/>
    <type id="highway.steps" priority="1" numLanes="1" speed="1.39" allow="pedestrian" oneway="1" width="2.00"/>
    <type id="highway.tertiary" priority="6" numLanes="1" speed="22.22" disallow="tram rail_urban rail rail_electric ship" oneway="0"/>
    <type id="highway.tertiary_link" priority="5" numLanes="1" speed="22.22" disallow="tram rail_urban rail rail_electric ship" oneway="0"/>
    <type id="highway.track" priority="1" numLanes="1" speed="5.56" disallow="tram rail_urban rail rail_electric ship" oneway="0"/>
    <type id="highway.trunk" priority="11" numLanes="2" speed="27.78" disallow="tram rail_urban rail rail_electric bicycle pedestrian ship" oneway="0"/>
    <type id="highway.trunk_link" priority="10" numLanes="1" speed="22.22" disallow="tram rail_urban rail rail_electric bicycle pedestrian ship" oneway="0"/>
    <type id="highway.unclassified" priority="5" numLanes="1" speed="13.89" disallow="tram rail_urban rail rail_electric ship" oneway="0"/>
    <type id="highway.unsurfaced" priority="1" numLanes="1" speed="8.33" disallow="tram rail_urban rail rail_electric ship" oneway="0"/>
    <type id="railway.light_rail" priority="15" numLanes="1" speed="27.78" allow="rail_urban" oneway="1"/>
    <type id="railway.preserved" priority="15" numLanes="1" speed="27.78" allow="rail" oneway="1"/>
    <type id="railway.rail" priority="15" numLanes="1" speed="83.33" allow="rail rail_electric" oneway="1"/>
    <type id="railway.subway" priority="15" numLanes="1" speed="27.78" allow="rail_urban" oneway="1"/>
    <type id="railway.tram" priority="15" numLanes="1" speed="13.89" allow="tram" oneway="1"/>

    <edge id=":1319730824_0" function="internal">
        <lane id=":1319730824_0_0" index="0" allow="delivery bicycle pedestrian" speed="3.65" length="4.67" shape="691.91,1185.95 692.32,1184.57 692.97,1183.95 693.85,1184.09 694.97,1185.00"/>
    </edge>
    <edge id=":16149932_0" function="internal">
        <lane id=":16149932_0_0" index="0" disallow="tram rail_urban rail rail_electric ship" speed="3.65" length="4.67" shape="173.83,1208.55 172.49,1208.00 171.94,1207.29 172.18,1206.43 173.20,1205.41"/>
    </edge>
    <edge id=":16202281_0" function="internal">
        <lane id=":16202281_0_0" index="0" disallow="tram rail_urban rail rail_electric ship" speed="3.65" length="4.67" shape="1215.17,721.20 1216.38,721.99 1216.78,722.79 1216.39,723.59 1215.20,724.40"/>
    </edge>
    <edge id=":16202293_0" function="internal">
        <lane id=":16202293_0_0" index="0" disallow="tram rail_urban rail rail_electric ship" speed="7.15" length="11.46" shape="953.53,1001.87 952.37,998.66 950.63,996.62 948.32,995.74 945.44,996.02"/>
    </edge>
    <edge id=":16202293_1" function="internal">
        <lane id=":16202293_1_0" index="0" disallow="tram rail_urban rail rail_electric ship" speed="8.33" length="12.91" shape="953.53,1001.87 949.66,989.56"/>
    </edge>
    <edge id=":16202293_2" function="internal">
        <lane id=":16202293_2_0" index="0" disallow="tram rail_urban rail rail_electric ship" speed="3.67" length="4.74" shape="953.53,1001.87 953.80,1000.43 954.39,999.74 955.30,999.80 956.52,1000.60"/>
    </edge>
    <edge id=":16202293_3" function="internal">
        <lane id=":16202293_3_0" index="0" disallow="tram rail_urban rail rail_electric ship" speed="6.45" length="9.01" shape="960.57,993.87 958.31,994.70 956.88,996.10 956.29,998.07 956.52,1000.60"/>
    </edge>
    <edge id=":16202293_4" function="internal">
        <lane id=":16202293_4_0" index="0" disallow="tram rail_urban rail rail_electric ship" speed="8.33" length="15.28" shape="960.57,993.87 945.44,996.02"/>
    </edge>
    <edge id=":16202293_5" function="internal">
        <lane id=":16202293_5_0" index="0" disallow="tram rail_urban rail rail_electric ship" speed="7.88" length="13.08" shape="960.57,993.87 956.43,994.31 953.24,993.74 950.98,992.16 949.66,989.56"/>
    </edge>
    <edge id=":16202293_6" function="internal">
        <lane id=":16202293_6_0" index="0" disallow="tram rail_urban rail rail_electric ship" speed="8.33" length="12.47" shape="952.75,988.71 956.52,1000.60"/>
    </edge>
    <edge id=":16202293_7" function="internal">
        <lane id=":16202293_7_0" index="0" disallow="tram rail_urban rail rail_electric ship" speed="7.27" length="11.54" shape="952.75,988.71 952.80,991.03 951.60,993.01 949.14,994.68 945.44,996.02"/>
    </edge>
    <edge id=":16202293_8" function="internal">
        <lane id=":16202293_8_0" index="0" disallow="tram rail_urban rail rail_electric ship" speed="3.65" length="4.67" shape="952.75,988.71 952.29,990.08 951.62,990.68 950.75,990.50 949.66,989.56"/>
    </edge>
    <edge id=":16202302_0" function="internal">
        <lane id=":16202302_0_0" index="0" disallow="tram rail_urban rail rail_electric ship" speed="6.26" length="9.05" shape="908.19,749.46 907.41,747.06 906.06,745.59 904.14,745.04 901.64,745.42"/>
    </edge>
    <edge id=":16202302_1" function="internal">
        <lane id=":16202302_1_0" index="0" disallow="tram rail_urban rail rail_electric ship" speed="8.48" length="14.38" shape="908.19,749.46 908.01,745.42 909.00,742.18 911.15,739.74 914.47,738.11"/>
    </edge>
    <edge id=":16202302_2" function="internal">
        <lane id=":16202302_2_0" index="0" disallow="tram rail_urban rail rail_electric ship" speed="3.65" length="2.53" shape="908.19,749.46 908.78,748.15 909.50,747.62 909.68,747.67"/>
    </edge>
    <edge id=":16202302_9" function="internal">
        <lane id=":16202302_9_0" index="0" speed="3.65" length="2.15" shape="909.68,747.67 910.35,747.88 911.34,748.92"/>
    </edge>
    <edge id=":16202302_3" function="internal">
        <lane id=":16202302_3_0" index="0" disallow="tram rail_urban rail rail_electric ship" speed="7.07" length="9.72" shape="915.43,741.16 913.25,742.25 911.84,743.91 911.20,746.14 911.34,748.92"/>
    </edge>
    <edge id=":16202302_4" function="internal">
        <lane id=":16202302_4_0" index="0" disallow="tram rail_urban rail rail_electric ship" speed="13.89" length="14.43" shape="915.43,741.16 901.64,745.42"/>
    </edge>
    <edge id=":16202302_5" function="internal">
        <lane id=":16202302_5_0" index="0" disallow="tram rail_urban rail rail_electric ship" speed="3.65" length="2.34" shape="915.43,741.16 914.05,740.76 913.43,740.12"/>
    </edge>
    <edge id=":16202302_10" function="internal">
        <lane id=":16202302_10_0" index="0" speed="3.65" length="2.34" shape="913.43,740.12 913.56,739.23 914.47,738.11"/>
    </edge>
    <edge id=":16202302_6" function="internal">
        <lane id=":16202302_6_0" index="0" disallow="tram rail_urban rail rail_electric ship" speed="13.89" length="14.39" shape="900.72,742.35 914.47,738.11"/>
    </edge>
    <edge id=":16202302_7" function="internal">
        <lane id=":16202302_7_0" index="0" disallow="tram rail_urban rail rail_electric ship" speed="7.80" length="5.90" shape="900.72,742.35 904.77,741.74 906.51,742.24"/>
    </edge>
    <edge id=":16202302_8" function="internal">
        <lane id=":16202302_8_0" index="0" disallow="tram rail_urban rail rail_electric ship" speed="3.65" length="2.34" shape="900.72,742.35 902.10,742.77 902.71,743.42"/>
    </edge>
    <edge id=":16202302_11" function="internal">
        <lane id=":16202302_11_0" index="0" speed="7.80" length="8.78" shape="906.51,742.24 907.89,742.63 910.08,745.03 911.34,748.92"/>
    </edge>
    <edge id=":16202302_12" function="internal">
        <lane id=":16202302_12_0" index="0" speed="3.65" length="2.34" shape="902.71,743.42 902.56,744.30 901.64,745.42"/>
    </edge>
    <edge id=":16202327_0" function="internal">
        <lane id=":16202327_0_0" index="0" disallow="tram rail_urban rail rail_electric ship" speed="6.37" length="9.04" shape="736.64,801.12 735.74,798.79 734.31,797.36 732.36,796.84 729.89,797.21"/>
    </edge>
    <edge id=":16202327_1" function="internal">
        <lane id=":16202327_1_0" index="0" disallow="tram rail_urban rail rail_electric ship" speed="13.89" length="15.80" shape="736.64,801.12 733.50,785.55"/>
        <lane id=":16202327_1_1" index="1" disallow="tram rail_urban rail rail_electric ship" speed="13.89" length="15.80" shape="739.76,800.40 736.65,785.00"/>
    </edge>
    <edge id=":16202327_3" function="internal">
        <lane id=":16202327_3_0" index="0" disallow="tram rail_urban rail rail_electric ship" speed="9.09" length="5.73" shape="739.76,800.40 739.60,796.29 740.26,794.82"/>
    </edge>
    <edge id=":16202327_4" function="internal">
        <lane id=":16202327_4_0" index="0" disallow="tram rail_urban rail rail_electric ship" speed="3.65" length="2.34" shape="739.76,800.40 740.27,799.05 740.96,798.48"/>
    </edge>
    <edge id=":16202327_18" function="internal">
        <lane id=":16202327_18_0" index="0" speed="9.09" length="11.96" shape="740.26,794.82 741.17,792.84 744.47,790.06 749.51,787.95"/>
    </edge>
    <edge id=":16202327_19" function="internal">
        <lane id=":16202327_19_0" index="0" speed="3.65" length="2.34" shape="740.96,798.48 741.83,798.69 742.88,799.68"/>
    </edge>
    <edge id=":16202327_5" function="internal">
        <lane id=":16202327_5_0" index="0" disallow="tram rail_urban rail rail_electric ship" speed="7.04" length="10.23" shape="750.43,791.01 747.95,792.17 746.39,793.88 745.73,796.14 745.99,798.95"/>
    </edge>
    <edge id=":16202327_6" function="internal">
        <lane id=":16202327_6_0" index="0" disallow="tram rail_urban rail rail_electric ship" speed="13.89" length="21.46" shape="750.43,791.01 729.89,797.21"/>
    </edge>
    <edge id=":16202327_7" function="internal">
        <lane id=":16202327_7_0" index="0" disallow="tram rail_urban rail rail_electric ship" speed="8.48" length="7.74" shape="750.43,791.01 745.03,792.01 742.81,791.64"/>
    </edge>
    <edge id=":16202327_8" function="internal">
        <lane id=":16202327_8_0" index="0" disallow="tram rail_urban rail rail_electric ship" speed="3.65" length="2.34" shape="750.43,791.01 749.05,790.59 748.44,789.94"/>
    </edge>
    <edge id=":16202327_20" function="internal">
        <lane id=":16202327_20_0" index="0" speed="8.48" length="9.81" shape="742.81,791.64 740.93,791.34 738.14,789.00 736.65,785.00"/>
    </edge>
    <edge id=":16202327_21" function="internal">
        <lane id=":16202327_21_0" index="0" speed="3.65" length="2.34" shape="748.44,789.94 748.59,789.06 749.51,787.95"/>
    </edge>
    <edge id=":16202327_9" function="internal">
        <lane id=":16202327_9_0" index="0" disallow="tram rail_urban rail rail_electric ship" speed="6.26" length="9.04" shape="742.95,783.91 743.74,786.30 745.09,787.78 747.01,788.33 749.51,787.95"/>
    </edge>
    <edge id=":16202327_10" function="internal">
        <lane id=":16202327_10_0" index="0" disallow="tram rail_urban rail rail_electric ship" speed="13.89" length="15.44" shape="742.95,783.91 745.99,798.95"/>
        <lane id=":16202327_10_1" index="1" disallow="tram rail_urban rail rail_electric ship" speed="13.89" length="15.44" shape="739.80,784.45 742.88,799.68"/>
    </edge>
    <edge id=":16202327_12" function="internal">
        <lane id=":16202327_12_0" index="0" disallow="tram rail_urban rail rail_electric ship" speed="9.35" length="5.52" shape="739.80,784.45 739.79,788.73 739.26,789.86"/>
    </edge>
    <edge id=":16202327_13" function="internal">
        <lane id=":16202327_13_0" index="0" disallow="tram rail_urban rail rail_electric ship" speed="3.65" length="2.34" shape="739.80,784.45 739.22,785.77 738.50,786.30"/>
    </edge>
    <edge id=":16202327_22" function="internal">
        <lane id=":16202327_22_0" index="0" speed="9.35" length="12.39" shape="739.26,789.86 738.13,792.28 734.83,795.11 729.89,797.21"/>
    </edge>
    <edge id=":16202327_23" function="internal">
        <lane id=":16202327_23_0" index="0" speed="3.65" length="2.34" shape="738.50,786.30 737.64,786.05 736.65,785.00"/>
    </edge>
    <edge id=":16202327_14" function="internal">
        <lane id=":16202327_14_0" index="0" disallow="tram rail_urban rail rail_electric ship" speed="7.38" length="10.80" shape="728.96,794.15 731.39,792.96 732.96,791.13 733.66,788.66 733.50,785.55"/>
    </edge>
    <edge id=":16202327_15" function="internal">
        <lane id=":16202327_15_0" index="0" disallow="tram rail_urban rail rail_electric ship" speed="13.89" length="21.46" shape="728.96,794.15 749.51,787.95"/>
    </edge>
    <edge id=":16202327_16" function="internal">
        <lane id=":16202327_16_0" index="0" disallow="tram rail_urban rail rail_electric ship" speed="8.56" length="7.80" shape="728.96,794.15 734.26,793.16 736.64,793.50"/>
    </edge>
    <edge id=":16202327_17" function="internal">
        <lane id=":16202327_17_0" index="0" disallow="tram rail_urban rail rail_electric ship" speed="3.65" length="2.34" shape="728.96,794.15 730.34,794.57 730.96,795.22"/>
    </edge>
    <edge id=":16202327_24" function="internal">
        <lane id=":16202327_24_0" index="0" speed="8.56" length="9.43" shape="736.64,793.50 738.34,793.75 741.22,795.92 742.88,799.68"/>
    </edge>
    <edge id=":16202327_25" function="internal">
        <lane id=":16202327_25_0" index="0" speed="3.65" length="2.34" shape="730.96,795.22 730.81,796.10 729.89,797.21"/>
    </edge>
    <edge id=":16202333_0" function="internal">
        <lane id=":16202333_0_0" index="0" disallow="tram rail_urban rail rail_electric ship" speed="12.55" length="3.85" shape="607.35,833.80 606.26,834.13 605.52,834.42 604.86,834.83 603.97,835.54"/>
    </edge>
    <edge id=":16202333_1" function="internal">
        <lane id=":16202333_1_0" index="0" disallow="tram rail_urban rail rail_electric ship" speed="3.65" length="2.34" shape="607.35,833.80 605.97,833.37 605.36,832.72"/>
    </edge>
    <edge id=":16202333_3" function="internal">
        <lane id=":16202333_3_0" index="0" speed="3.65" length="2.34" shape="605.36,832.72 605.52,831.84 606.44,830.73"/>
    </edge>
    <edge id=":16202333_2" function="internal">
        <lane id=":16202333_2_0" index="0" disallow="tram rail_urban rail rail_electric ship" speed="11.41" length="3.65" shape="602.85,831.01 603.92,831.14 604.67,831.15 605.40,831.02 606.44,830.73"/>
    </edge>
    <edge id=":16202342_0" function="internal">
        <lane id=":16202342_0_0" index="0" disallow="tram rail_urban rail rail_electric ship" speed="6.17" length="7.95" shape="657.98,1085.00 657.02,1083.36 655.59,1082.45 653.68,1082.26 651.30,1082.80"/>
    </edge>
    <edge id=":16202342_1" function="internal">
        <lane id=":16202342_1_0" index="0" disallow="tram rail_urban rail rail_electric ship" speed="7.10" length="11.81" shape="657.98,1085.00 657.63,1082.39 658.62,1080.23 660.95,1078.50 664.63,1077.20"/>
    </edge>
    <edge id=":16202342_2" function="internal">
        <lane id=":16202342_2_0" index="0" disallow="tram rail_urban rail rail_electric ship" speed="3.65" length="4.67" shape="657.98,1085.00 658.32,1083.60 658.94,1082.96 659.83,1083.06 660.99,1083.92"/>
    </edge>
    <edge id=":16202342_3" function="internal">
        <lane id=":16202342_3_0" index="0" disallow="tram rail_urban rail rail_electric ship" speed="7.59" length="11.92" shape="655.26,1072.19 656.68,1075.04 658.72,1076.83 661.37,1077.55 664.63,1077.20"/>
    </edge>
    <edge id=":16202342_4" function="internal">
        <lane id=":16202342_4_0" index="0" disallow="tram rail_urban rail rail_electric ship" speed="8.33" length="13.07" shape="655.26,1072.19 656.58,1075.37 658.08,1078.07 659.60,1080.77 660.99,1083.92"/>
    </edge>
    <edge id=":16202342_5" function="internal">
        <lane id=":16202342_5_0" index="0" disallow="tram rail_urban rail rail_electric ship" speed="7.67" length="12.84" shape="655.26,1072.19 656.04,1075.96 655.64,1078.99 654.06,1081.27 651.30,1082.80"/>
    </edge>
    <edge id=":16202342_6" function="internal">
        <lane id=":16202342_6_0" index="0" disallow="tram rail_urban rail rail_electric ship" speed="8.33" length="14.62" shape="650.25,1079.78 653.81,1078.86 657.39,1078.33 661.00,1077.88 664.63,1077.20"/>
    </edge>
    <edge id=":16202342_7" function="internal">
        <lane id=":16202342_7_0" index="0" disallow="tram rail_urban rail rail_electric ship" speed="7.73" length="13.06" shape="650.25,1079.78 654.01,1078.97 657.05,1079.39 659.37,1081.04 660.99,1083.92"/>
    </edge>
    <edge id=":16202342_8" function="internal">
        <lane id=":16202342_8_0" index="0" disallow="tram rail_urban rail rail_electric ship" speed="3.65" length="4.67" shape="650.25,1079.78 651.65,1080.14 652.29,1080.77 652.17,1081.66 651.30,1082.80"/>
    </edge>
    <edge id=":16202348_0" function="internal">
        <lane id=":16202348_0_0" index="0" disallow="tram rail_urban rail rail_electric ship" speed="13.89" length="12.52" shape="796.01,1043.51 794.73,1039.95 793.94,1037.48 793.31,1034.97 792.51,1031.27"/>
        <lane id=":16202348_0_1" index="1" disallow="tram rail_urban rail rail_electric ship" speed="13.89" length="12.52" shape="799.02,1042.42 797.79,1038.98 797.02,1036.60 796.41,1034.17 795.64,1030.60"/>
    </edge>
    <edge id=":16202348_2" function="internal">
        <lane id=":16202348_2_0" index="0" disallow="tram rail_urban rail rail_electric ship" speed="3.65" length="2.34" shape="799.02,1042.42 799.36,1041.02 799.98,1040.37"/>
    </edge>
    <edge id=":16202348_10" function="internal">
        <lane id=":16202348_10_0" index="0" speed="3.65" length="2.34" shape="799.98,1040.37 800.86,1040.47 802.03,1041.32"/>
    </edge>
    <edge id=":16202348_3" function="internal">
        <lane id=":16202348_3_0" index="0" disallow="tram rail_urban rail rail_electric ship" speed="6.34" length="9.07" shape="808.60,1033.30 806.30,1034.30 804.94,1035.79 804.52,1037.77 805.03,1040.23"/>
    </edge>
    <edge id=":16202348_4" function="internal">
        <lane id=":16202348_4_0" index="0" disallow="tram rail_urban rail rail_electric ship" speed="7.99" length="14.76" shape="808.60,1033.30 803.40,1034.33 799.51,1034.22 796.92,1032.98 795.64,1030.60"/>
    </edge>
    <edge id=":16202348_5" function="internal">
        <lane id=":16202348_5_0" index="0" disallow="tram rail_urban rail rail_electric ship" speed="13.89" length="11.64" shape="801.90,1029.27 802.62,1032.58 803.18,1034.83 803.89,1037.04 805.03,1040.23"/>
        <lane id=":16202348_5_1" index="1" disallow="tram rail_urban rail rail_electric ship" speed="13.89" length="11.64" shape="798.77,1029.94 799.52,1033.38 800.10,1035.72 800.84,1038.01 802.03,1041.32"/>
    </edge>
    <edge id=":16202348_7" function="internal">
        <lane id=":16202348_7_0" index="0" disallow="tram rail_urban rail rail_electric ship" speed="3.65" length="2.34" shape="798.77,1029.94 798.24,1031.28 797.54,1031.84"/>
    </edge>
    <edge id=":16202348_11" function="internal">
        <lane id=":16202348_11_0" index="0" speed="3.65" length="2.34" shape="797.54,1031.84 796.67,1031.61 795.64,1030.60"/>
    </edge>
    <edge id=":16202348_8" function="internal">
        <lane id=":16202348_8_0" index="0" disallow="tram rail_urban rail rail_electric ship" speed="6.98" length="9.80" shape="788.58,1039.12 790.80,1038.01 792.19,1036.34 792.76,1034.09 792.51,1031.27"/>
    </edge>
    <edge id=":16202348_9" function="internal">
        <lane id=":16202348_9_0" index="0" disallow="tram rail_urban rail rail_electric ship" speed="8.35" length="14.99" shape="788.58,1039.12 793.68,1037.93 797.62,1037.90 800.40,1039.03 802.03,1041.32"/>
    </edge>
    <edge id=":16202357_0" function="internal">
        <lane id=":16202357_0_0" index="0" disallow="tram rail_urban rail rail_electric ship" speed="6.23" length="9.05" shape="930.67,880.49 929.89,878.08 928.54,876.62 926.61,876.09 924.12,876.49"/>
    </edge>
    <edge id=":16202357_1" function="internal">
        <lane id=":16202357_1_0" index="0" disallow="tram rail_urban rail rail_electric ship" speed="8.33" length="11.23" shape="930.67,880.49 928.77,869.42"/>
    </edge>
    <edge id=":16202357_2" function="internal">
        <lane id=":16202357_2_0" index="0" disallow="tram rail_urban rail rail_electric ship" speed="3.65" length="4.67" shape="930.67,880.49 931.25,879.17 931.97,878.64 932.83,878.90 933.82,879.95"/>
    </edge>
    <edge id=":16202357_3" function="internal">
        <lane id=":16202357_3_0" index="0" disallow="tram rail_urban rail rail_electric ship" speed="8.33" length="11.23" shape="931.93,868.88 933.82,879.95"/>
    </edge>
    <edge id=":16202357_4" function="internal">
        <lane id=":16202357_4_0" index="0" disallow="tram rail_urban rail rail_electric ship" speed="6.94" length="11.88" shape="931.93,868.88 931.75,871.19 930.39,873.23 927.85,875.00 924.12,876.49"/>
    </edge>
    <edge id=":16202357_5" function="internal">
        <lane id=":16202357_5_0" index="0" disallow="tram rail_urban rail rail_electric ship" speed="3.65" length="4.67" shape="931.93,868.88 931.34,870.20 930.62,870.73 929.76,870.47 928.77,869.42"/>
    </edge>
    <edge id=":16202362_0" function="internal">
        <lane id=":16202362_0_0" index="0" disallow="tram rail_urban rail rail_electric ship" speed="13.89" length="1.35" shape="713.80,672.25 713.72,671.79 713.68,671.47 713.66,671.15 713.64,670.69"/>
        <lane id=":16202362_0_1" index="1" disallow="tram rail_urban rail rail_electric ship" speed="13.89" length="1.35" shape="716.96,671.70 716.90,671.37 716.87,671.15 716.85,670.92 716.84,670.59"/>
    </edge>
    <edge id=":16202362_2" function="internal">
        <lane id=":16202362_2_0" index="0" disallow="tram rail_urban rail rail_electric ship" speed="3.65" length="2.34" shape="716.96,671.70 717.54,670.38 718.26,669.85"/>
    </edge>
    <edge id=":16202362_6" function="internal">
        <lane id=":16202362_6_0" index="0" speed="3.65" length="2.34" shape="718.26,669.85 719.11,670.11 720.11,671.15"/>
    </edge>
    <edge id=":16202362_3" function="internal">
        <lane id=":16202362_3_0" index="0" disallow="tram rail_urban rail rail_electric ship" speed="13.89" length="0.45" shape="723.24,670.38 723.24,670.45 723.24,670.49 723.25,670.54 723.26,670.60"/>
        <lane id=":16202362_3_1" index="1" disallow="tram rail_urban rail rail_electric ship" speed="13.89" length="0.45" shape="720.04,670.48 720.05,670.68 720.06,670.82 720.07,670.95 720.11,671.15"/>
    </edge>
    <edge id=":16202362_5" function="internal">
        <lane id=":16202362_5_0" index="0" disallow="tram rail_urban rail rail_electric ship" speed="3.65" length="2.34" shape="720.04,670.48 719.28,671.71 718.49,672.13"/>
    </edge>
    <edge id=":16202362_7" function="internal">
        <lane id=":16202362_7_0" index="0" speed="3.65" length="2.34" shape="718.49,672.13 717.68,671.76 716.84,670.59"/>
    </edge>
    <edge id=":16204036_0" function="internal">
        <lane id=":16204036_0_0" index="0" disallow="tram rail_urban rail rail_electric ship" speed="11.11" length="13.28" shape="463.50,834.05 459.76,821.31"/>
    </edge>
    <edge id=":16204036_1" function="internal">
        <lane id=":16204036_1_0" index="0" disallow="tram rail_urban rail rail_electric ship" speed="7.68" length="6.91" shape="463.50,834.05 463.04,830.71 463.93,827.98 464.41,827.52"/>
    </edge>
    <edge id=":16204036_2" function="internal">
        <lane id=":16204036_2_0" index="0" disallow="tram rail_urban rail rail_electric ship" speed="3.65" length="4.67" shape="463.50,834.05 463.91,832.67 464.56,832.05 465.44,832.20 466.56,833.11"/>
    </edge>
    <edge id=":16204036_12" function="internal">
        <lane id=":16204036_12_0" index="0" speed="7.68" length="6.30" shape="464.41,827.52 466.17,825.86 469.75,824.35"/>
    </edge>
    <edge id=":16204036_3" function="internal">
        <lane id=":16204036_3_0" index="0" disallow="tram rail_urban rail rail_electric ship" speed="6.49" length="9.05" shape="462.85,820.46 463.83,822.74 465.31,824.14 467.28,824.68 469.75,824.35"/>
    </edge>
    <edge id=":16204036_4" function="internal">
        <lane id=":16204036_4_0" index="0" disallow="tram rail_urban rail rail_electric ship" speed="11.11" length="13.18" shape="462.85,820.46 466.56,833.11"/>
    </edge>
    <edge id=":16204036_5" function="internal">
        <lane id=":16204036_5_0" index="0" disallow="tram rail_urban rail rail_electric ship" speed="3.65" length="2.50" shape="462.85,820.46 462.39,821.83 461.72,822.43 461.57,822.40"/>
    </edge>
    <edge id=":16204036_13" function="internal">
        <lane id=":16204036_13_0" index="0" speed="3.65" length="2.17" shape="461.57,822.40 460.85,822.25 459.76,821.31"/>
    </edge>
    <edge id=":16204036_6" function="internal">
        <lane id=":16204036_6_0" index="0" disallow="tram rail_urban rail rail_electric ship" speed="6.68" length="9.51" shape="455.37,828.42 457.85,827.35 459.41,825.81 460.04,823.79 459.76,821.31"/>
    </edge>
    <edge id=":16204036_7" function="internal">
        <lane id=":16204036_7_0" index="0" disallow="tram rail_urban rail rail_electric ship" speed="13.89" length="14.94" shape="455.37,828.42 469.75,824.35"/>
    </edge>
    <edge id=":16204036_8" function="internal">
        <lane id=":16204036_8_0" index="0" disallow="tram rail_urban rail rail_electric ship" speed="7.94" length="13.72" shape="455.37,828.42 459.43,827.76 462.64,828.32 465.02,830.10 466.56,833.11"/>
    </edge>
    <edge id=":16204036_9" function="internal">
        <lane id=":16204036_9_0" index="0" disallow="tram rail_urban rail rail_electric ship" speed="8.33" length="12.65" shape="457.61,833.33 459.23,830.56 460.13,827.64 460.31,824.55 459.76,821.31"/>
    </edge>
    <edge id=":16204036_10" function="internal">
        <lane id=":16204036_10_0" index="0" disallow="tram rail_urban rail rail_electric ship" speed="8.33" length="15.35" shape="457.61,833.33 460.08,830.42 462.99,827.84 466.24,825.76 469.75,824.35"/>
    </edge>
    <edge id=":16204036_11" function="internal">
        <lane id=":16204036_11_0" index="0" disallow="tram rail_urban rail rail_electric ship" speed="5.56" length="7.95" shape="457.61,833.33 460.55,830.09 463.02,828.97 463.79,829.35"/>
    </edge>
    <edge id=":16204036_14" function="internal">
        <lane id=":16204036_14_0" index="0" speed="5.56" length="4.87" shape="463.79,829.35 465.03,829.98 466.56,833.11"/>
    </edge>
    <edge id=":16820760_0" function="internal">
        <lane id=":16820760_0_0" index="0" disallow="tram rail_urban rail rail_electric ship" speed="8.33" length="13.26" shape="550.16,1120.27 546.53,1107.52"/>
    </edge>
    <edge id=":16820760_1" function="internal">